@<TRIPOS>MOLECULE
*****
 34 36 0 0 0
SMALL
GASTEIGER

@<TRIPOS>ATOM
      1 C         138.9256  142.8209  164.5235 C.3     1  UNL1        0.0944
      2 N         139.6433  143.0019  163.2187 N.am    1  UNL1       -0.3005
      3 C         139.1142  143.9667  162.1993 C.2     1  UNL1        0.2474
      4 O         137.8676  144.7506  162.4846 O.2     1  UNL1       -0.2701
      5 H         140.4615  142.4874  163.0314 H       1  UNL1        0.1498
      6 C         139.8319  144.1477  160.8947 C.ar    1  UNL1        0.0727
      7 C         139.6299  143.1596  159.7842 C.ar    1  UNL1        0.0109
      8 C         140.3475  143.3406  158.4795 C.ar    1  UNL1        0.0579
      9 C         141.2672  144.5096  158.2852 C.ar    1  UNL1        0.2249
     10 N         141.4692  145.4976  159.3956 N.ar    1  UNL1       -0.2100
     11 C         140.7515  145.3167  160.7004 C.ar    1  UNL1        0.1065
     12 O         141.9848  144.6906  156.9806 O.3     1  UNL1       -0.4599
     13 C         141.5992  145.8118  156.0617 C.3     1  UNL1        0.2159
     14 C         140.1781  145.9497  155.6019 C.3     1  UNL1        0.1505
     15 C         139.4551  147.2518  155.7803 C.3     1  UNL1        0.4014
     16 F         138.7321  148.5539  155.9586 F       1  UNL1       -0.1699
     17 F         139.4235  147.4381  154.2922 F       1  UNL1       -0.1699
     18 F         139.4867  147.0656  157.2683 F       1  UNL1       -0.1699
     19 C         137.9119  141.7259  164.6762 C.3     1  UNL1        0.0499
     20 C         138.7707  139.3009  165.0399 C.ar    1  UNL1        0.0012
     21 C         139.0598  137.9309  164.5020 C.ar    1  UNL1       -0.0001
     22 C         138.7792  137.6156  163.0626 C.ar    1  UNL1        0.0023
     23 C         138.2096  138.6705  162.1611 C.ar    1  UNL1        0.0293
     24 C         137.9205  140.0405  162.6990 C.ar    1  UNL1        0.1362
     25 F         137.3508  141.0954  161.7974 F       1  UNL1       -0.2045
     26 C         138.2011  140.3557  164.1384 C.ar    1  UNL1        0.0071
     27 C         139.6124  140.2466  169.3581 C.ar    1  UNL1        0.3201
     28 N         138.3611  139.5101  168.9818 N.ar    1  UNL1       -0.1927
     29 C         138.0805  139.1949  167.5424 C.ar    1  UNL1        0.1051
     30 C         139.0513  139.6161  166.4793 C.ar    1  UNL1        0.0383
     31 C         140.3026  140.3526  166.8557 C.ar    1  UNL1        0.1051
     32 N         140.5832  140.6679  168.2951 N.ar    1  UNL1       -0.1927
     33 C         141.2570  141.0293  171.2109 C.3     1  UNL1        0.2559
     34 O         139.8930  140.5618  170.7976 O.3     1  UNL1       -0.4426
@<TRIPOS>BOND
     1    33    34    1
     2    34    27    1
     3    27    28   ar
     4    28    29   ar
     5    29    30   ar
     6    30    20    1
     7    20    21   ar
     8    21    22   ar
     9    22    23   ar
    10    23    24   ar
    11    24    25    1
    12    24    26   ar
    13    26    19    1
    14    19     1    1
    15     1     2    1
    16     2     3   am
    17     3     4    2
    18     3     6    1
    19     6     7   ar
    20     7     8   ar
    21     8     9   ar
    22     9    12    1
    23    12    13    1
    24    13    14    1
    25    14    15    1
    26    15    16    1
    27    15    17    1
    28    15    18    1
    29     9    10   ar
    30    10    11   ar
    31    30    31   ar
    32    31    32   ar
    33    32    27   ar
    34    26    20   ar
    35    11     6   ar
    36     2     5    1
@<TRIPOS>MOLECULE
*****
 34 36 0 0 0
SMALL
GASTEIGER

@<TRIPOS>ATOM
      1 C         139.3363  142.4142  165.4100 C.3     1  UNL1        0.0944
      2 N         139.9097  141.5782  166.5157 N.am    1  UNL1       -0.3005
      3 C         141.2272  140.8864  166.3270 C.2     1  UNL1        0.2474
      4 O         141.9713  141.0305  165.0326 O.2     1  UNL1       -0.2701
      5 H         139.4213  141.4836  167.3653 H       1  UNL1        0.1498
      6 C         141.8005  140.0506  167.4327 C.ar    1  UNL1        0.0727
      7 C         141.2971  140.2157  168.8360 C.ar    1  UNL1        0.0109
      8 C         141.8704  139.3798  169.9417 C.ar    1  UNL1        0.0579
      9 C         142.9472  138.3788  169.6441 C.ar    1  UNL1        0.2249
     10 N         143.4507  138.2137  168.2408 N.ar    1  UNL1       -0.2100
     11 C         142.8773  139.0496  167.1351 C.ar    1  UNL1        0.1065
     12 O         143.5205  137.5429  170.7498 O.3     1  UNL1       -0.4599
     13 C         144.5360  136.4833  170.4397 C.3     1  UNL1        0.2159
     14 C         144.8254  135.4055  171.4420 C.3     1  UNL1        0.1505
     15 C         145.9922  135.5423  172.3747 C.3     1  UNL1        0.4014
     16 F         147.1589  135.6791  173.3074 F       1  UNL1       -0.1699
     17 F         145.5432  134.3180  173.1160 F       1  UNL1       -0.1699
     18 F         146.4412  136.7666  171.6334 F       1  UNL1       -0.1699
     19 C         138.3994  141.7989  164.4133 C.3     1  UNL1        0.0499
     20 C         139.1771  140.2601  162.4697 C.ar    1  UNL1        0.0012
     21 C         139.4520  138.8880  161.9296 C.ar    1  UNL1       -0.0001
     22 C         139.2242  137.6826  162.7928 C.ar    1  UNL1        0.0023
     23 C         138.7214  137.8493  164.1961 C.ar    1  UNL1        0.0293
     24 C         138.4465  139.2214  164.7363 C.ar    1  UNL1        0.1362
     25 F         137.9437  139.3881  166.1397 F       1  UNL1       -0.2045
     26 C         138.6743  140.4268  163.8731 C.ar    1  UNL1        0.0071
     27 C         139.8605  143.8763  159.8801 C.ar    1  UNL1        0.3201
     28 N         140.9817  143.3258  160.7106 N.ar    1  UNL1       -0.1927
     29 C         140.7539  142.1204  161.5738 C.ar    1  UNL1        0.1051
     30 C         139.4049  141.4655  161.6065 C.ar    1  UNL1        0.0383
     31 C         138.2837  142.0160  160.7761 C.ar    1  UNL1        0.1051
     32 N         138.5115  143.2214  159.9128 N.ar    1  UNL1       -0.1927
     33 C         141.4844  145.4850  158.6453 C.3     1  UNL1        0.2559
     34 O         140.0883  145.0817  159.0169 O.3     1  UNL1       -0.4426
@<TRIPOS>BOND
     1    33    34    1
     2    34    27    1
     3    27    28   ar
     4    28    29   ar
     5    29    30   ar
     6    30    20    1
     7    20    21   ar
     8    21    22   ar
     9    22    23   ar
    10    23    24   ar
    11    24    25    1
    12    24    26   ar
    13    26    19    1
    14    19     1    1
    15     1     2    1
    16     2     3   am
    17     3     4    2
    18     3     6    1
    19     6     7   ar
    20     7     8   ar
    21     8     9   ar
    22     9    12    1
    23    12    13    1
    24    13    14    1
    25    14    15    1
    26    15    16    1
    27    15    17    1
    28    15    18    1
    29     9    10   ar
    30    10    11   ar
    31    30    31   ar
    32    31    32   ar
    33    32    27   ar
    34    26    20   ar
    35    11     6   ar
    36     2     5    1
@<TRIPOS>MOLECULE
*****
 34 36 0 0 0
SMALL
GASTEIGER

@<TRIPOS>ATOM
      1 C         140.5760  140.4791  162.3837 C.3     1  UNL1        0.0944
      2 N         140.6450  140.6366  163.8739 N.am    1  UNL1       -0.3005
      3 C         140.5137  139.4350  164.7620 C.2     1  UNL1        0.2474
      4 O         140.3133  138.0758  164.1600 O.2     1  UNL1       -0.2701
      5 H         140.7765  141.5287  164.2690 H       1  UNL1        0.1498
      6 C         140.5827  139.5925  166.2520 C.ar    1  UNL1        0.0727
      7 C         139.3289  139.8324  167.0398 C.ar    1  UNL1        0.0109
      8 C         139.3979  139.9900  168.5298 C.ar    1  UNL1        0.0579
      9 C         140.7207  139.9076  169.2323 C.ar    1  UNL1        0.2249
     10 N         141.9744  139.6677  168.4446 N.ar    1  UNL1       -0.2100
     11 C         141.9055  139.5101  166.9545 C.ar    1  UNL1        0.1065
     12 O         140.7897  140.0651  170.7224 O.3     1  UNL1       -0.4599
     13 C         140.9246  141.4314  171.3267 C.3     1  UNL1        0.2159
     14 C         141.5467  142.5435  170.5353 C.3     1  UNL1        0.1505
     15 C         140.7404  143.2686  169.4988 C.3     1  UNL1        0.4014
     16 F         139.9342  143.9937  168.4624 F       1  UNL1       -0.1699
     17 F         141.7672  142.9260  168.4604 F       1  UNL1       -0.1699
     18 F         139.7137  143.6112  170.5372 F       1  UNL1       -0.1699
     19 C         141.8388  140.4223  161.5763 C.3     1  UNL1        0.0499
     20 C         143.6767  142.2296  161.9015 C.ar    1  UNL1        0.0012
     21 C         144.9764  142.6657  162.5102 C.ar    1  UNL1       -0.0001
     22 C         145.7379  141.7307  163.4024 C.ar    1  UNL1        0.0023
     23 C         145.1997  140.3596  163.6859 C.ar    1  UNL1        0.0293
     24 C         143.9000  139.9235  163.0772 C.ar    1  UNL1        0.1362
     25 F         143.3617  138.5524  163.3607 F       1  UNL1       -0.2045
     26 C         143.1385  140.8585  162.1850 C.ar    1  UNL1        0.0071
     27 C         141.3923  145.0344  159.2249 C.ar    1  UNL1        0.3201
     28 N         142.4696  144.1619  158.6521 N.ar    1  UNL1       -0.1927
     29 C         143.2311  143.2269  159.5443 C.ar    1  UNL1        0.1051
     30 C         142.9153  143.1645  161.0093 C.ar    1  UNL1        0.0383
     31 C         141.8380  144.0370  161.5822 C.ar    1  UNL1        0.1051
     32 N         141.0765  144.9720  160.6900 N.ar    1  UNL1       -0.1927
     33 C         140.1540  145.5024  156.9894 C.3     1  UNL1        0.2559
     34 O         140.6309  145.9694  158.3327 O.3     1  UNL1       -0.4426
@<TRIPOS>BOND
     1    33    34    1
     2    34    27    1
     3    27    28   ar
     4    28    29   ar
     5    29    30   ar
     6    30    20    1
     7    20    21   ar
     8    21    22   ar
     9    22    23   ar
    10    23    24   ar
    11    24    25    1
    12    24    26   ar
    13    26    19    1
    14    19     1    1
    15     1     2    1
    16     2     3   am
    17     3     4    2
    18     3     6    1
    19     6     7   ar
    20     7     8   ar
    21     8     9   ar
    22     9    12    1
    23    12    13    1
    24    13    14    1
    25    14    15    1
    26    15    16    1
    27    15    17    1
    28    15    18    1
    29     9    10   ar
    30    10    11   ar
    31    30    31   ar
    32    31    32   ar
    33    32    27   ar
    34    26    20   ar
    35    11     6   ar
    36     2     5    1
@<TRIPOS>MOLECULE
*****
 34 36 0 0 0
SMALL
GASTEIGER

@<TRIPOS>ATOM
      1 C         140.7491  140.1437  161.6752 C.3     1  UNL1        0.0944
      2 N         140.5245  140.3657  163.1416 N.am    1  UNL1       -0.3005
      3 C         140.1150  139.2204  164.0194 C.2     1  UNL1        0.2474
      4 O         139.9300  137.8532  163.4309 O.2     1  UNL1       -0.2701
      5 H         140.6459  141.2631  163.5279 H       1  UNL1        0.1498
      6 C         139.8904  139.4424  165.4857 C.ar    1  UNL1        0.0727
      7 C         140.9106  140.1851  166.2968 C.ar    1  UNL1        0.0109
      8 C         140.6860  140.4071  167.7632 C.ar    1  UNL1        0.0579
      9 C         139.4412  139.8865  168.4185 C.ar    1  UNL1        0.2249
     10 N         138.4210  139.1439  167.6075 N.ar    1  UNL1       -0.2100
     11 C         138.6456  138.9219  166.1411 C.ar    1  UNL1        0.1065
     12 O         139.2166  140.1085  169.8849 O.3     1  UNL1       -0.4599
     13 C         140.3856  140.3381  170.7964 C.3     1  UNL1        0.2159
     14 C         140.8113  141.7366  171.1324 C.3     1  UNL1        0.1505
     15 C         141.9419  142.3770  170.3828 C.3     1  UNL1        0.4014
     16 F         143.0724  143.0173  169.6333 F       1  UNL1       -0.1699
     17 F         141.0940  143.5903  170.1404 F       1  UNL1       -0.1699
     18 F         142.7898  141.1637  170.6252 F       1  UNL1       -0.1699
     19 C         142.1437  140.1352  161.1229 C.3     1  UNL1        0.0499
     20 C         143.8833  141.9218  161.8523 C.ar    1  UNL1        0.0012
     21 C         145.0357  142.3349  162.7190 C.ar    1  UNL1       -0.0001
     22 C         145.6011  141.3745  163.7230 C.ar    1  UNL1        0.0023
     23 C         145.0140  140.0010  163.8603 C.ar    1  UNL1        0.0293
     24 C         143.8616  139.5879  162.9936 C.ar    1  UNL1        0.1362
     25 F         143.2744  138.2144  163.1309 F       1  UNL1       -0.2045
     26 C         143.2962  140.5483  161.9896 C.ar    1  UNL1        0.0071
     27 C         142.1872  144.8029  158.8402 C.ar    1  UNL1        0.3201
     28 N         141.7213  144.8470  160.2653 N.ar    1  UNL1       -0.1927
     29 C         142.2866  143.8867  161.2693 C.ar    1  UNL1        0.1051
     30 C         143.3179  142.8821  160.8483 C.ar    1  UNL1        0.0383
     31 C         143.7839  142.8380  159.4232 C.ar    1  UNL1        0.1051
     32 N         143.2185  143.7984  158.4192 N.ar    1  UNL1       -0.1927
     33 C         140.1698  145.6934  157.4665 C.3     1  UNL1        0.2559
     34 O         141.6218  145.7633  157.8362 O.3     1  UNL1       -0.4426
@<TRIPOS>BOND
     1    33    34    1
     2    34    27    1
     3    27    28   ar
     4    28    29   ar
     5    29    30   ar
     6    30    20    1
     7    20    21   ar
     8    21    22   ar
     9    22    23   ar
    10    23    24   ar
    11    24    25    1
    12    24    26   ar
    13    26    19    1
    14    19     1    1
    15     1     2    1
    16     2     3   am
    17     3     4    2
    18     3     6    1
    19     6     7   ar
    20     7     8   ar
    21     8     9   ar
    22     9    12    1
    23    12    13    1
    24    13    14    1
    25    14    15    1
    26    15    16    1
    27    15    17    1
    28    15    18    1
    29     9    10   ar
    30    10    11   ar
    31    30    31   ar
    32    31    32   ar
    33    32    27   ar
    34    26    20   ar
    35    11     6   ar
    36     2     5    1
@<TRIPOS>MOLECULE
*****
 34 36 0 0 0
SMALL
GASTEIGER

@<TRIPOS>ATOM
      1 C         138.6033  138.9672  164.0498 C.3     1  UNL1        0.0944
      2 N         139.3334  139.0498  162.7420 N.am    1  UNL1       -0.3005
      3 C         140.4433  138.0870  162.4405 C.2     1  UNL1        0.2474
      4 O         140.8233  137.0416  163.4469 O.2     1  UNL1       -0.2701
      5 H         139.0840  139.7359  162.0815 H       1  UNL1        0.1498
      6 C         141.1733  138.1696  161.1328 C.ar    1  UNL1        0.0727
      7 C         140.4472  138.6058  159.8948 C.ar    1  UNL1        0.0109
      8 C         141.1771  138.6884  158.5870 C.ar    1  UNL1        0.0579
      9 C         142.6331  138.3348  158.5171 C.ar    1  UNL1        0.2249
     10 N         143.3592  137.8986  159.7550 N.ar    1  UNL1       -0.2100
     11 C         142.6293  137.8159  161.0629 C.ar    1  UNL1        0.1065
     12 O         143.3631  138.4174  157.2094 O.3     1  UNL1       -0.4599
     13 C         143.3922  137.2321  156.2905 C.3     1  UNL1        0.2159
     14 C         142.8716  135.9060  156.7601 C.3     1  UNL1        0.1505
     15 C         143.5996  134.6446  156.4010 C.3     1  UNL1        0.4014
     16 F         144.3275  133.3832  156.0419 F       1  UNL1       -0.1699
     17 F         144.0888  135.2868  155.1368 F       1  UNL1       -0.1699
     18 F         143.1103  134.0024  157.6651 F       1  UNL1       -0.1699
     19 C         138.2140  140.2229  164.7720 C.3     1  UNL1        0.0499
     20 C         139.7396  141.9866  165.9175 C.ar    1  UNL1        0.0012
     21 C         140.5304  142.4432  167.1075 C.ar    1  UNL1       -0.0001
     22 C         140.5864  141.5930  168.3420 C.ar    1  UNL1        0.0023
     23 C         139.8516  140.2861  168.3865 C.ar    1  UNL1        0.0293
     24 C         139.0609  139.8294  167.1965 C.ar    1  UNL1        0.1362
     25 F         138.3260  138.5224  167.2409 F       1  UNL1       -0.2045
     26 C         139.0049  140.6797  165.9620 C.ar    1  UNL1        0.0071
     27 C         139.5716  144.5374  162.2141 C.ar    1  UNL1        0.3201
     28 N         140.6292  143.4825  162.3509 N.ar    1  UNL1       -0.1927
     29 C         140.6852  142.6322  163.5853 C.ar    1  UNL1        0.1051
     30 C         139.6836  142.8368  164.6830 C.ar    1  UNL1        0.0383
     31 C         138.6261  143.8917  164.5463 C.ar    1  UNL1        0.1051
     32 N         138.5701  144.7420  163.3118 N.ar    1  UNL1       -0.1927
     33 C         140.6282  145.3262  159.9755 C.3     1  UNL1        0.2559
     34 O         139.5156  145.3876  160.9796 O.3     1  UNL1       -0.4426
@<TRIPOS>BOND
     1    33    34    1
     2    34    27    1
     3    27    28   ar
     4    28    29   ar
     5    29    30   ar
     6    30    20    1
     7    20    21   ar
     8    21    22   ar
     9    22    23   ar
    10    23    24   ar
    11    24    25    1
    12    24    26   ar
    13    26    19    1
    14    19     1    1
    15     1     2    1
    16     2     3   am
    17     3     4    2
    18     3     6    1
    19     6     7   ar
    20     7     8   ar
    21     8     9   ar
    22     9    12    1
    23    12    13    1
    24    13    14    1
    25    14    15    1
    26    15    16    1
    27    15    17    1
    28    15    18    1
    29     9    10   ar
    30    10    11   ar
    31    30    31   ar
    32    31    32   ar
    33    32    27   ar
    34    26    20   ar
    35    11     6   ar
    36     2     5    1
@<TRIPOS>MOLECULE
*****
 34 36 0 0 0
SMALL
GASTEIGER

@<TRIPOS>ATOM
      1 C         144.0203  139.1280  162.4727 C.3     1  UNL1        0.0944
      2 N         143.9724  139.3189  163.9598 N.am    1  UNL1       -0.3005
      3 C         142.9338  140.2140  164.5680 C.2     1  UNL1        0.2474
      4 O         141.9429  140.9183  163.6892 O.2     1  UNL1       -0.2701
      5 H         144.6227  138.8566  164.5365 H       1  UNL1        0.1498
      6 C         142.8859  140.4047  166.0550 C.ar    1  UNL1        0.0727
      7 C         142.6979  139.2213  166.9574 C.ar    1  UNL1        0.0109
      8 C         142.6501  139.4121  168.4444 C.ar    1  UNL1        0.0579
      9 C         142.7903  140.7863  169.0292 C.ar    1  UNL1        0.2249
     10 N         142.9783  141.9697  168.1269 N.ar    1  UNL1       -0.2100
     11 C         143.0262  141.7789  166.6398 C.ar    1  UNL1        0.1065
     12 O         142.7425  140.9770  170.5162 O.3     1  UNL1       -0.4599
     13 C         141.8405  142.0181  171.1102 C.3     1  UNL1        0.2159
     14 C         140.3519  141.8443  171.0484 C.3     1  UNL1        0.1505
     15 C         139.7470  140.9094  170.0433 C.3     1  UNL1        0.4014
     16 F         139.1421  139.9745  169.0383 F       1  UNL1       -0.1699
     17 F         139.7344  142.0114  169.0258 F       1  UNL1       -0.1699
     18 F         139.7596  139.8074  171.0608 F       1  UNL1       -0.1699
     19 C         143.2841  137.9849  161.8391 C.3     1  UNL1        0.0499
     20 C         141.0907  138.4695  160.5337 C.ar    1  UNL1        0.0012
     21 C         139.5921  138.4846  160.4721 C.ar    1  UNL1       -0.0001
     22 C         138.7882  138.0302  161.6542 C.ar    1  UNL1        0.0023
     23 C         139.4829  137.5608  162.8979 C.ar    1  UNL1        0.0293
     24 C         140.9816  137.5457  162.9596 C.ar    1  UNL1        0.1362
     25 F         141.6764  137.0763  164.2033 F       1  UNL1       -0.2045
     26 C         141.7854  138.0001  161.7774 C.ar    1  UNL1        0.0071
     27 C         143.5023  139.8325  156.9874 C.ar    1  UNL1        0.3201
     28 N         143.0129  140.8339  157.9912 N.ar    1  UNL1       -0.1927
     29 C         142.2090  140.3796  159.1733 C.ar    1  UNL1        0.1051
     30 C         141.8946  138.9238  159.3516 C.ar    1  UNL1        0.0383
     31 C         142.3840  137.9224  158.3479 C.ar    1  UNL1        0.1051
     32 N         143.1879  138.3767  157.1658 N.ar    1  UNL1       -0.1927
     33 C         145.2982  139.3575  155.1711 C.3     1  UNL1        0.2559
     34 O         144.3062  140.2868  155.8053 O.3     1  UNL1       -0.4426
@<TRIPOS>BOND
     1    33    34    1
     2    34    27    1
     3    27    28   ar
     4    28    29   ar
     5    29    30   ar
     6    30    20    1
     7    20    21   ar
     8    21    22   ar
     9    22    23   ar
    10    23    24   ar
    11    24    25    1
    12    24    26   ar
    13    26    19    1
    14    19     1    1
    15     1     2    1
    16     2     3   am
    17     3     4    2
    18     3     6    1
    19     6     7   ar
    20     7     8   ar
    21     8     9   ar
    22     9    12    1
    23    12    13    1
    24    13    14    1
    25    14    15    1
    26    15    16    1
    27    15    17    1
    28    15    18    1
    29     9    10   ar
    30    10    11   ar
    31    30    31   ar
    32    31    32   ar
    33    32    27   ar
    34    26    20   ar
    35    11     6   ar
    36     2     5    1
@<TRIPOS>MOLECULE
*****
 34 36 0 0 0
SMALL
GASTEIGER

@<TRIPOS>ATOM
      1 C         140.1308  143.6267  165.6694 C.3     1  UNL1        0.0944
      2 N         139.9928  143.6959  164.1774 N.am    1  UNL1       -0.3005
      3 C         140.9115  144.5726  163.3791 C.2     1  UNL1        0.2474
      4 O         141.9682  145.3802  164.0728 O.2     1  UNL1       -0.2701
      5 H         139.2993  143.1658  163.7220 H       1  UNL1        0.1498
      6 C         140.7736  144.6417  161.8871 C.ar    1  UNL1        0.0727
      7 C         141.4031  143.5871  161.0260 C.ar    1  UNL1        0.0109
      8 C         141.2651  143.6562  159.5339 C.ar    1  UNL1        0.0579
      9 C         140.4977  144.7800  158.9030 C.ar    1  UNL1        0.2249
     10 N         139.8682  145.8346  159.7640 N.ar    1  UNL1       -0.2100
     11 C         140.0061  145.7655  161.2561 C.ar    1  UNL1        0.1065
     12 O         140.3597  144.8491  157.4110 O.3     1  UNL1       -0.4599
     13 C         140.4198  146.1754  156.7128 C.3     1  UNL1        0.2159
     14 C         139.1737  146.7732  156.1298 C.3     1  UNL1        0.1505
     15 C         139.2707  147.9263  155.1752 C.3     1  UNL1        0.4014
     16 F         139.3676  149.0793  154.2207 F       1  UNL1       -0.1699
     17 F         139.9895  147.0514  154.1914 F       1  UNL1       -0.1699
     18 F         138.5519  148.8011  156.1590 F       1  UNL1       -0.1699
     19 C         140.8569  142.4773  166.3030 C.3     1  UNL1        0.0499
     20 C         139.7149  140.4000  167.3666 C.ar    1  UNL1        0.0012
     21 C         139.1283  139.7100  168.5623 C.ar    1  UNL1       -0.0001
     22 C         139.0973  140.4069  169.8902 C.ar    1  UNL1        0.0023
     23 C         139.6527  141.7940  170.0224 C.ar    1  UNL1        0.0293
     24 C         140.2392  142.4841  168.8267 C.ar    1  UNL1        0.1362
     25 F         140.7947  143.8712  168.9588 F       1  UNL1       -0.2045
     26 C         140.2703  141.7871  167.4988 C.ar    1  UNL1        0.0071
     27 C         139.8081  138.3092  163.3829 C.ar    1  UNL1        0.3201
     28 N         138.6011  139.1039  163.7848 N.ar    1  UNL1       -0.1927
     29 C         138.5700  139.8009  165.1126 C.ar    1  UNL1        0.1051
     30 C         139.7459  139.7031  166.0387 C.ar    1  UNL1        0.0383
     31 C         140.9529  138.9083  165.6369 C.ar    1  UNL1        0.1051
     32 N         140.9840  138.2114  164.3090 N.ar    1  UNL1       -0.1927
     33 C         139.0634  138.1682  160.8979 C.3     1  UNL1        0.2559
     34 O         139.8391  137.6122  162.0550 O.3     1  UNL1       -0.4426
@<TRIPOS>BOND
     1    33    34    1
     2    34    27    1
     3    27    28   ar
     4    28    29   ar
     5    29    30   ar
     6    30    20    1
     7    20    21   ar
     8    21    22   ar
     9    22    23   ar
    10    23    24   ar
    11    24    25    1
    12    24    26   ar
    13    26    19    1
    14    19     1    1
    15     1     2    1
    16     2     3   am
    17     3     4    2
    18     3     6    1
    19     6     7   ar
    20     7     8   ar
    21     8     9   ar
    22     9    12    1
    23    12    13    1
    24    13    14    1
    25    14    15    1
    26    15    16    1
    27    15    17    1
    28    15    18    1
    29     9    10   ar
    30    10    11   ar
    31    30    31   ar
    32    31    32   ar
    33    32    27   ar
    34    26    20   ar
    35    11     6   ar
    36     2     5    1
@<TRIPOS>MOLECULE
*****
 34 36 0 0 0
SMALL
GASTEIGER

@<TRIPOS>ATOM
      1 C         142.8670  138.9346  166.3606 C.3     1  UNL1        0.0944
      2 N         143.0949  139.0208  164.8805 N.am    1  UNL1       -0.3005
      3 C         142.3577  138.1006  163.9533 C.2     1  UNL1        0.2474
      4 O         141.3926  137.0942  164.5061 O.2     1  UNL1       -0.2701
      5 H         143.7283  139.6814  164.5176 H       1  UNL1        0.1498
      6 C         142.5856  138.1869  162.4733 C.ar    1  UNL1        0.0727
      7 C         141.4450  137.9653  161.5246 C.ar    1  UNL1        0.0109
      8 C         141.6729  138.0516  160.0445 C.ar    1  UNL1        0.0579
      9 C         143.0414  138.3595  159.5131 C.ar    1  UNL1        0.2249
     10 N         144.1819  138.5811  160.4617 N.ar    1  UNL1       -0.2100
     11 C         143.9541  138.4948  161.9418 C.ar    1  UNL1        0.1065
     12 O         143.2693  138.4458  158.0330 O.3     1  UNL1       -0.4599
     13 C         142.6588  137.4246  157.1194 C.3     1  UNL1        0.2159
     14 C         143.5397  136.5439  156.2838 C.3     1  UNL1        0.1505
     15 C         143.1802  135.1022  156.0780 C.3     1  UNL1        0.4014
     16 F         142.8207  133.6605  155.8723 F       1  UNL1       -0.1699
     17 F         143.2166  135.3051  154.5923 F       1  UNL1       -0.1699
     18 F         143.1439  134.8992  157.5637 F       1  UNL1       -0.1699
     19 C         142.6112  140.1816  167.1540 C.3     1  UNL1        0.0499
     20 C         140.1087  140.1329  167.8506 C.ar    1  UNL1        0.0012
     21 C         139.0579  140.1385  168.9210 C.ar    1  UNL1       -0.0001
     22 C         139.4587  140.1983  170.3652 C.ar    1  UNL1        0.0023
     23 C         140.9103  140.2526  170.7390 C.ar    1  UNL1        0.0293
     24 C         141.9611  140.2470  169.6686 C.ar    1  UNL1        0.1362
     25 F         143.4128  140.3012  170.0424 F       1  UNL1       -0.2045
     26 C         141.5603  140.1872  168.2244 C.ar    1  UNL1        0.0071
     27 C         138.9062  139.9535  163.5179 C.ar    1  UNL1        0.3201
     28 N         138.5456  138.8296  164.4435 N.ar    1  UNL1       -0.1927
     29 C         138.9464  138.8894  165.8877 C.ar    1  UNL1        0.1051
     30 C         139.7078  140.0731  166.4064 C.ar    1  UNL1        0.0383
     31 C         140.0684  141.1970  165.4808 C.ar    1  UNL1        0.1051
     32 N         139.6676  141.1372  164.0366 N.ar    1  UNL1       -0.1927
     33 C         137.7258  138.7198  161.5597 C.3     1  UNL1        0.2559
     34 O         138.5053  139.8937  162.0737 O.3     1  UNL1       -0.4426
@<TRIPOS>BOND
     1    33    34    1
     2    34    27    1
     3    27    28   ar
     4    28    29   ar
     5    29    30   ar
     6    30    20    1
     7    20    21   ar
     8    21    22   ar
     9    22    23   ar
    10    23    24   ar
    11    24    25    1
    12    24    26   ar
    13    26    19    1
    14    19     1    1
    15     1     2    1
    16     2     3   am
    17     3     4    2
    18     3     6    1
    19     6     7   ar
    20     7     8   ar
    21     8     9   ar
    22     9    12    1
    23    12    13    1
    24    13    14    1
    25    14    15    1
    26    15    16    1
    27    15    17    1
    28    15    18    1
    29     9    10   ar
    30    10    11   ar
    31    30    31   ar
    32    31    32   ar
    33    32    27   ar
    34    26    20   ar
    35    11     6   ar
    36     2     5    1
@<TRIPOS>MOLECULE
*****
 34 36 0 0 0
SMALL
GASTEIGER

@<TRIPOS>ATOM
      1 C         139.1550  139.9066  167.3929 C.3     1  UNL1        0.0944
      2 N         139.1609  140.7229  166.1344 N.am    1  UNL1       -0.3005
      3 C         138.8220  140.0803  164.8221 C.2     1  UNL1        0.2474
      4 O         138.4772  138.6214  164.7682 O.2     1  UNL1       -0.2701
      5 H         139.3871  141.6804  166.1698 H       1  UNL1        0.1498
      6 C         138.8278  140.8965  163.5637 C.ar    1  UNL1        0.0727
      7 C         139.9397  140.7346  162.5699 C.ar    1  UNL1        0.0109
      8 C         139.9456  141.5509  161.3115 C.ar    1  UNL1        0.0579
      9 C         138.8397  142.5290  161.0468 C.ar    1  UNL1        0.2249
     10 N         137.7278  142.6910  162.0405 N.ar    1  UNL1       -0.2100
     11 C         137.7219  141.8747  163.2990 C.ar    1  UNL1        0.1065
     12 O         138.8455  143.3453  159.7884 O.3     1  UNL1       -0.4599
     13 C         140.0094  144.2401  159.4802 C.3     1  UNL1        0.2159
     14 C         140.2095  145.5057  160.2599 C.3     1  UNL1        0.1505
     15 C         140.6099  145.4416  161.7041 C.3     1  UNL1        0.4014
     16 F         141.0102  145.3775  163.1483 F       1  UNL1       -0.1699
     17 F         141.8148  144.6285  161.3341 F       1  UNL1       -0.1699
     18 F         139.4050  146.2547  162.0742 F       1  UNL1       -0.1699
     19 C         140.4506  139.5244  168.0450 C.3     1  UNL1        0.0499
     20 C         142.4917  141.1317  168.0195 C.ar    1  UNL1        0.0012
     21 C         143.3298  142.1778  168.6926 C.ar    1  UNL1       -0.0001
     22 C         142.9650  142.6630  170.0643 C.ar    1  UNL1        0.0023
     23 C         141.7620  142.1019  170.7629 C.ar    1  UNL1        0.0293
     24 C         140.9239  141.0558  170.0898 C.ar    1  UNL1        0.1362
     25 F         139.7209  140.4947  170.7884 F       1  UNL1       -0.2045
     26 C         141.2888  140.5707  168.7181 C.ar    1  UNL1        0.0071
     27 C         143.5863  139.6763  163.9044 C.ar    1  UNL1        0.3201
     28 N         143.7123  138.7572  165.0832 N.ar    1  UNL1       -0.1927
     29 C         143.3475  139.2424  166.4549 C.ar    1  UNL1        0.1051
     30 C         142.8566  140.6465  166.6478 C.ar    1  UNL1        0.0383
     31 C         142.7305  141.5656  165.4691 C.ar    1  UNL1        0.1051
     32 N         143.0953  141.0804  164.0974 N.ar    1  UNL1       -0.1927
     33 C         143.0580  138.2207  161.8183 C.3     1  UNL1        0.2559
     34 O         143.9511  139.1911  162.5327 O.3     1  UNL1       -0.4426
@<TRIPOS>BOND
     1    33    34    1
     2    34    27    1
     3    27    28   ar
     4    28    29   ar
     5    29    30   ar
     6    30    20    1
     7    20    21   ar
     8    21    22   ar
     9    22    23   ar
    10    23    24   ar
    11    24    25    1
    12    24    26   ar
    13    26    19    1
    14    19     1    1
    15     1     2    1
    16     2     3   am
    17     3     4    2
    18     3     6    1
    19     6     7   ar
    20     7     8   ar
    21     8     9   ar
    22     9    12    1
    23    12    13    1
    24    13    14    1
    25    14    15    1
    26    15    16    1
    27    15    17    1
    28    15    18    1
    29     9    10   ar
    30    10    11   ar
    31    30    31   ar
    32    31    32   ar
    33    32    27   ar
    34    26    20   ar
    35    11     6   ar
    36     2     5    1
