@<TRIPOS>MOLECULE
*****
 27 30 0 0 0
SMALL
GASTEIGER

@<TRIPOS>ATOM
      1 C         138.8397  137.5053  163.6101 C.3     1  UNL1        0.0559
      2 C         138.3583  138.7973  164.2008 C.3     1  UNL1        0.2300
      3 C         138.4615  139.0307  165.6790 C.ar    1  UNL1        0.2207
      4 N         137.5844  138.4198  166.7314 N.ar    1  UNL1       -0.0565
      5 O         138.0406  138.9275  168.0670 O.2     1  UNL1       -0.3326
      6 C         139.1997  139.8522  167.8402 C.ar    1  UNL1        0.2598
      7 N         139.4598  139.9160  166.3642 N.ar    1  UNL1       -0.1876
      8 C         139.9645  140.5846  168.9026 C.ar    1  UNL1        0.0569
      9 C         140.7581  139.8178  169.9187 C.ar    1  UNL1        0.0048
     10 C         141.5229  140.5502  170.9812 C.ar    1  UNL1        0.0010
     11 C         141.4939  142.0492  171.0276 C.ar    1  UNL1        0.0114
     12 C         140.7003  142.8159  170.0116 C.ar    1  UNL1        0.0578
     13 CL        140.6714  144.3148  170.0580 Cl      1  UNL1       -0.0822
     14 C         139.9356  142.0835  168.9491 C.ar    1  UNL1        0.0161
     15 O         137.7736  139.8560  163.3134 O.3     1  UNL1       -0.4426
     16 C         138.4898  141.1613  163.1310 C.ar    1  UNL1        0.3204
     17 N         137.8444  142.5013  162.9357 N.ar    1  UNL1       -0.0916
     18 N         138.9328  143.5239  162.7959 N.ar    1  UNL1       -0.1259
     19 C         140.2508  142.8161  162.9048 C.ar    1  UNL1        0.1689
     20 N         139.9770  141.3559  163.1119 N.ar    1  UNL1       -0.2635
     21 C         141.0091  140.2793  163.2719 C.3     1  UNL1        0.1366
     22 C         141.6049  143.4560  162.8213 C.ar    1  UNL1        0.0391
     23 C         142.6248  142.9298  161.8555 C.ar    1  UNL1        0.0237
     24 C         143.9788  143.5698  161.7720 C.ar    1  UNL1        0.0990
     25 N         144.3129  144.7359  162.6543 N.ar    1  UNL1       -0.2423
     26 C         143.2930  145.2621  163.6201 C.ar    1  UNL1        0.0990
     27 C         141.9390  144.6222  163.7036 C.ar    1  UNL1        0.0237
@<TRIPOS>BOND
     1     2     1    1
     2     2    15    1
     3    15    16    1
     4    16    17   ar
     5    17    18   ar
     6    18    19   ar
     7    19    22    1
     8    22    23   ar
     9    23    24   ar
    10    24    25   ar
    11    25    26   ar
    12    26    27   ar
    13    19    20   ar
    14    20    21    1
    15     2     3    1
    16     3     4   ar
    17     4     5   ar
    18     5     6   ar
    19     6     8    1
    20     8     9   ar
    21     9    10   ar
    22    10    11   ar
    23    11    12   ar
    24    12    13    1
    25    12    14   ar
    26     6     7   ar
    27    20    16   ar
    28     7     3   ar
    29    27    22   ar
    30    14     8   ar
@<TRIPOS>MOLECULE
*****
 27 30 0 0 0
SMALL
GASTEIGER

@<TRIPOS>ATOM
      1 C         141.9024  145.5029  163.7275 C.3     1  UNL1        0.0559
      2 C         140.7527  145.2261  162.8048 C.3     1  UNL1        0.2300
      3 C         140.9856  145.1218  161.3266 C.ar    1  UNL1        0.2207
      4 N         142.2582  144.6856  160.6631 N.ar    1  UNL1       -0.0565
      5 O         142.0459  144.7296  159.1790 O.2     1  UNL1       -0.3326
      6 C         140.6421  145.1929  158.9251 C.ar    1  UNL1        0.2598
      7 N         139.9867  145.4353  160.2524 N.ar    1  UNL1       -0.1876
      8 C         140.0053  145.3809  157.5800 C.ar    1  UNL1        0.0569
      9 C         139.5996  144.1862  156.7687 C.ar    1  UNL1        0.0048
     10 C         138.9629  144.3741  155.4236 C.ar    1  UNL1        0.0010
     11 C         138.7318  145.7568  154.8898 C.ar    1  UNL1        0.0114
     12 C         139.1375  146.9515  155.7011 C.ar    1  UNL1        0.0578
     13 CL        138.9065  148.3341  155.1673 Cl      1  UNL1       -0.0822
     14 C         139.7743  146.7635  157.0462 C.ar    1  UNL1        0.0161
     15 O         139.3700  145.0535  163.3602 O.3     1  UNL1       -0.4426
     16 C         138.7276  143.6981  163.3655 C.ar    1  UNL1        0.3204
     17 N         137.4897  143.3060  162.6144 N.ar    1  UNL1       -0.0916
     18 N         137.2074  141.8623  162.9075 N.ar    1  UNL1       -0.1259
     19 C         138.2708  141.3620  163.8397 C.ar    1  UNL1        0.1689
     20 N         139.2103  142.4966  164.1227 N.ar    1  UNL1       -0.2635
     21 C         140.4201  142.4396  165.0076 C.3     1  UNL1        0.1366
     22 C         138.3761  139.9713  164.3919 C.ar    1  UNL1        0.0391
     23 C         138.0470  139.7091  165.8317 C.ar    1  UNL1        0.0237
     24 C         138.1523  138.3185  166.3838 C.ar    1  UNL1        0.0990
     25 N         138.5869  137.1900  165.4963 N.ar    1  UNL1       -0.2423
     26 C         138.9160  137.4522  164.0566 C.ar    1  UNL1        0.0990
     27 C         138.8107  138.8428  163.5044 C.ar    1  UNL1        0.0237
@<TRIPOS>BOND
     1     2     1    1
     2     2    15    1
     3    15    16    1
     4    16    17   ar
     5    17    18   ar
     6    18    19   ar
     7    19    22    1
     8    22    23   ar
     9    23    24   ar
    10    24    25   ar
    11    25    26   ar
    12    26    27   ar
    13    19    20   ar
    14    20    21    1
    15     2     3    1
    16     3     4   ar
    17     4     5   ar
    18     5     6   ar
    19     6     8    1
    20     8     9   ar
    21     9    10   ar
    22    10    11   ar
    23    11    12   ar
    24    12    13    1
    25    12    14   ar
    26     6     7   ar
    27    20    16   ar
    28     7     3   ar
    29    27    22   ar
    30    14     8   ar
@<TRIPOS>MOLECULE
*****
 27 30 0 0 0
SMALL
GASTEIGER

@<TRIPOS>ATOM
      1 C         142.8865  137.9973  162.6667 C.3     1  UNL1        0.0559
      2 C         143.5317  139.0724  163.4900 C.3     1  UNL1        0.2300
      3 C         143.2230  139.1833  164.9537 C.ar    1  UNL1        0.2207
      4 N         143.9178  138.4458  166.0597 N.ar    1  UNL1       -0.0565
      5 O         143.2895  138.8579  167.3579 O.2     1  UNL1       -0.3326
      6 C         142.2063  139.8500  167.0543 C.ar    1  UNL1        0.2598
      7 N         142.1651  140.0512  165.5683 N.ar    1  UNL1       -0.1876
      8 C         141.3198  140.5229  168.0599 C.ar    1  UNL1        0.0569
      9 C         140.1398  139.7914  168.6279 C.ar    1  UNL1        0.0048
     10 C         139.2533  140.4643  169.6335 C.ar    1  UNL1        0.0010
     11 C         139.5469  141.8688  170.0712 C.ar    1  UNL1        0.0114
     12 C         140.7268  142.6002  169.5033 C.ar    1  UNL1        0.0578
     13 CL        141.0204  144.0045  169.9410 Cl      1  UNL1       -0.0822
     14 C         141.6133  141.9273  168.4976 C.ar    1  UNL1        0.0161
     15 O         144.4857  140.0366  162.8496 O.3     1  UNL1       -0.4426
     16 C         144.0972  141.4755  162.6806 C.ar    1  UNL1        0.3204
     17 N         144.9172  142.6639  163.0874 N.ar    1  UNL1       -0.0916
     18 N         144.1472  143.9016  162.7333 N.ar    1  UNL1       -0.1259
     19 C         142.8514  143.4782  162.1077 C.ar    1  UNL1        0.1689
     20 N         142.8204  141.9788  162.0751 N.ar    1  UNL1       -0.2635
     21 C         141.7080  141.1315  161.5324 C.3     1  UNL1        0.1366
     22 C         141.7752  144.3934  161.6033 C.ar    1  UNL1        0.0391
     23 C         141.4963  144.4838  160.1322 C.ar    1  UNL1        0.0237
     24 C         140.4202  145.3990  159.6279 C.ar    1  UNL1        0.0990
     25 N         139.6231  146.2238  160.5945 N.ar    1  UNL1       -0.2423
     26 C         139.9021  146.1334  162.0655 C.ar    1  UNL1        0.0990
     27 C         140.9782  145.2182  162.5699 C.ar    1  UNL1        0.0237
@<TRIPOS>BOND
     1     2     1    1
     2     2    15    1
     3    15    16    1
     4    16    17   ar
     5    17    18   ar
     6    18    19   ar
     7    19    22    1
     8    22    23   ar
     9    23    24   ar
    10    24    25   ar
    11    25    26   ar
    12    26    27   ar
    13    19    20   ar
    14    20    21    1
    15     2     3    1
    16     3     4   ar
    17     4     5   ar
    18     5     6   ar
    19     6     8    1
    20     8     9   ar
    21     9    10   ar
    22    10    11   ar
    23    11    12   ar
    24    12    13    1
    25    12    14   ar
    26     6     7   ar
    27    20    16   ar
    28     7     3   ar
    29    27    22   ar
    30    14     8   ar
@<TRIPOS>MOLECULE
*****
 27 30 0 0 0
SMALL
GASTEIGER

@<TRIPOS>ATOM
      1 C         142.7489  140.3598  170.1151 C.3     1  UNL1        0.0559
      2 C         141.9569  140.0400  168.8820 C.3     1  UNL1        0.2300
      3 C         142.6483  139.4980  167.6661 C.ar    1  UNL1        0.2207
      4 N         143.5191  138.2776  167.6176 N.ar    1  UNL1       -0.0565
      5 O         143.9992  138.1065  166.2070 O.2     1  UNL1       -0.3326
      6 C         143.4250  139.2211  165.3835 C.ar    1  UNL1        0.2598
      7 N         142.5901  140.0811  166.2854 N.ar    1  UNL1       -0.1876
      8 C         143.6468  139.4377  163.9159 C.ar    1  UNL1        0.0569
      9 C         143.2625  138.3709  162.9338 C.ar    1  UNL1        0.0048
     10 C         143.4843  138.5876  161.4662 C.ar    1  UNL1        0.0010
     11 C         144.0904  139.8709  160.9807 C.ar    1  UNL1        0.0114
     12 C         144.4747  140.9376  161.9628 C.ar    1  UNL1        0.0578
     13 CL        145.0808  142.2209  161.4772 Cl      1  UNL1       -0.0822
     14 C         144.2529  140.7210  163.4304 C.ar    1  UNL1        0.0161
     15 O         140.4736  140.2623  168.8648 O.3     1  UNL1       -0.4426
     16 C         139.7388  140.3189  167.5583 C.ar    1  UNL1        0.3204
     17 N         138.8866  139.2293  166.9780 N.ar    1  UNL1       -0.0916
     18 N         138.3484  139.7120  165.6638 N.ar    1  UNL1       -0.1259
     19 C         138.8678  141.0999  165.4318 C.ar    1  UNL1        0.1689
     20 N         139.7272  141.4750  166.6026 N.ar    1  UNL1       -0.2635
     21 C         140.4483  142.7775  166.7857 C.3     1  UNL1        0.1366
     22 C         138.5788  141.9615  164.2384 C.ar    1  UNL1        0.0391
     23 C         137.9163  143.2951  164.4190 C.ar    1  UNL1        0.0237
     24 C         137.6272  144.1567  163.2256 C.ar    1  UNL1        0.0990
     25 N         138.0007  143.6846  161.8517 N.ar    1  UNL1       -0.2423
     26 C         138.6631  142.3511  161.6711 C.ar    1  UNL1        0.0990
     27 C         138.9522  141.4895  162.8644 C.ar    1  UNL1        0.0237
@<TRIPOS>BOND
     1     2     1    1
     2     2    15    1
     3    15    16    1
     4    16    17   ar
     5    17    18   ar
     6    18    19   ar
     7    19    22    1
     8    22    23   ar
     9    23    24   ar
    10    24    25   ar
    11    25    26   ar
    12    26    27   ar
    13    19    20   ar
    14    20    21    1
    15     2     3    1
    16     3     4   ar
    17     4     5   ar
    18     5     6   ar
    19     6     8    1
    20     8     9   ar
    21     9    10   ar
    22    10    11   ar
    23    11    12   ar
    24    12    13    1
    25    12    14   ar
    26     6     7   ar
    27    20    16   ar
    28     7     3   ar
    29    27    22   ar
    30    14     8   ar
@<TRIPOS>MOLECULE
*****
 27 30 0 0 0
SMALL
GASTEIGER

@<TRIPOS>ATOM
      1 C         143.6514  144.9586  163.4222 C.3     1  UNL1        0.0559
      2 C         142.4538  144.2034  162.9267 C.3     1  UNL1        0.2300
      3 C         141.6681  144.7249  161.7602 C.ar    1  UNL1        0.2207
      4 N         140.3029  145.3433  161.8225 N.ar    1  UNL1       -0.0565
      5 O         139.9007  145.7202  160.4275 O.2     1  UNL1       -0.3326
      6 C         141.0173  145.3347  159.5030 C.ar    1  UNL1        0.2598
      7 N         142.1097  144.7196  160.3267 N.ar    1  UNL1       -0.1876
      8 C         141.0379  145.5301  158.0159 C.ar    1  UNL1        0.0569
      9 C         142.1555  144.9522  157.1990 C.ar    1  UNL1        0.0048
     10 C         142.1761  145.1475  155.7119 C.ar    1  UNL1        0.0010
     11 C         141.0793  145.9208  155.0418 C.ar    1  UNL1        0.0114
     12 C         139.9618  146.4986  155.8587 C.ar    1  UNL1        0.0578
     13 CL        138.8650  147.2718  155.1885 Cl      1  UNL1       -0.0822
     14 C         139.9412  146.3032  157.3458 C.ar    1  UNL1        0.0161
     15 O         142.0420  142.9266  163.5977 O.3     1  UNL1       -0.4426
     16 C         141.3167  142.9690  164.9100 C.ar    1  UNL1        0.3204
     17 N         140.0776  143.7604  165.2075 N.ar    1  UNL1       -0.0916
     18 N         139.6983  143.5081  166.6366 N.ar    1  UNL1       -0.1259
     19 C         140.7030  142.5608  167.2225 C.ar    1  UNL1        0.1689
     20 N         141.7032  142.2276  166.1554 N.ar    1  UNL1       -0.2635
     21 C         142.8828  141.3136  166.3071 C.3     1  UNL1        0.1366
     22 C         140.7068  142.0383  168.6286 C.ar    1  UNL1        0.0391
     23 C         139.9249  140.8053  168.9726 C.ar    1  UNL1        0.0237
     24 C         139.9287  140.2829  170.3787 C.ar    1  UNL1        0.0990
     25 N         140.7144  140.9934  171.4407 N.ar    1  UNL1       -0.2423
     26 C         141.4963  142.2263  171.0966 C.ar    1  UNL1        0.0990
     27 C         141.4925  142.7488  169.6905 C.ar    1  UNL1        0.0237
@<TRIPOS>BOND
     1     2     1    1
     2     2    15    1
     3    15    16    1
     4    16    17   ar
     5    17    18   ar
     6    18    19   ar
     7    19    22    1
     8    22    23   ar
     9    23    24   ar
    10    24    25   ar
    11    25    26   ar
    12    26    27   ar
    13    19    20   ar
    14    20    21    1
    15     2     3    1
    16     3     4   ar
    17     4     5   ar
    18     5     6   ar
    19     6     8    1
    20     8     9   ar
    21     9    10   ar
    22    10    11   ar
    23    11    12   ar
    24    12    13    1
    25    12    14   ar
    26     6     7   ar
    27    20    16   ar
    28     7     3   ar
    29    27    22   ar
    30    14     8   ar
@<TRIPOS>MOLECULE
*****
 27 30 0 0 0
SMALL
GASTEIGER

@<TRIPOS>ATOM
      1 C         139.9025  137.8280  163.1401 C.3     1  UNL1        0.0559
      2 C         138.8124  138.6581  163.7503 C.3     1  UNL1        0.2300
      3 C         138.8385  138.9692  165.2176 C.ar    1  UNL1        0.2207
      4 N         137.8299  138.5188  166.2324 N.ar    1  UNL1       -0.0565
      5 O         138.2458  139.0564  167.5695 O.2     1  UNL1       -0.3326
      6 C         139.5115  139.8390  167.3811 C.ar    1  UNL1        0.2598
      7 N         139.8778  139.7851  165.9274 N.ar    1  UNL1       -0.1876
      8 C         140.2766  140.5507  168.4573 C.ar    1  UNL1        0.0569
      9 C         141.2864  139.8046  169.2781 C.ar    1  UNL1        0.0048
     10 C         142.0515  140.5162  170.3543 C.ar    1  UNL1        0.0010
     11 C         141.8067  141.9739  170.6097 C.ar    1  UNL1        0.0114
     12 C         140.7969  142.7200  169.7890 C.ar    1  UNL1        0.0578
     13 CL        140.5522  144.1776  170.0444 Cl      1  UNL1       -0.0822
     14 C         140.0319  142.0083  168.7127 C.ar    1  UNL1        0.0161
     15 O         137.6961  139.1773  162.8934 O.3     1  UNL1       -0.4426
     16 C         137.8468  140.4868  162.1776 C.ar    1  UNL1        0.3204
     17 N         137.3506  141.8177  162.6601 N.ar    1  UNL1       -0.0916
     18 N         137.7174  142.8488  161.6343 N.ar    1  UNL1       -0.1259
     19 C         138.4402  142.1553  160.5178 C.ar    1  UNL1        0.1689
     20 N         138.5202  140.6956  160.8536 N.ar    1  UNL1       -0.2635
     21 C         139.1611  139.6313  160.0130 C.3     1  UNL1        0.1366
     22 C         138.9871  142.8071  159.2824 C.ar    1  UNL1        0.0391
     23 C         140.2369  143.6329  159.3607 C.ar    1  UNL1        0.0237
     24 C         140.7837  144.2846  158.1253 C.ar    1  UNL1        0.0990
     25 N         140.0807  144.1106  156.8117 N.ar    1  UNL1       -0.2423
     26 C         138.8309  143.2849  156.7335 C.ar    1  UNL1        0.0990
     27 C         138.2841  142.6332  157.9688 C.ar    1  UNL1        0.0237
@<TRIPOS>BOND
     1     2     1    1
     2     2    15    1
     3    15    16    1
     4    16    17   ar
     5    17    18   ar
     6    18    19   ar
     7    19    22    1
     8    22    23   ar
     9    23    24   ar
    10    24    25   ar
    11    25    26   ar
    12    26    27   ar
    13    19    20   ar
    14    20    21    1
    15     2     3    1
    16     3     4   ar
    17     4     5   ar
    18     5     6   ar
    19     6     8    1
    20     8     9   ar
    21     9    10   ar
    22    10    11   ar
    23    11    12   ar
    24    12    13    1
    25    12    14   ar
    26     6     7   ar
    27    20    16   ar
    28     7     3   ar
    29    27    22   ar
    30    14     8   ar
@<TRIPOS>MOLECULE
*****
 27 30 0 0 0
SMALL
GASTEIGER

@<TRIPOS>ATOM
      1 C         143.1978  145.0777  163.3499 C.3     1  UNL1        0.0559
      2 C         142.2392  144.2046  162.5958 C.3     1  UNL1        0.2300
      3 C         141.5116  144.7467  161.4012 C.ar    1  UNL1        0.2207
      4 N         140.1719  145.4212  161.4162 N.ar    1  UNL1       -0.0565
      5 O         139.8283  145.8007  160.0063 O.2     1  UNL1       -0.3326
      6 C         140.9556  145.3607  159.1200 C.ar    1  UNL1        0.2598
      7 N         141.9960  144.7092  159.9821 N.ar    1  UNL1       -0.1876
      8 C         141.0296  145.5406  157.6326 C.ar    1  UNL1        0.0569
      9 C         140.0072  146.3814  156.9271 C.ar    1  UNL1        0.0048
     10 C         140.0812  146.5613  155.4397 C.ar    1  UNL1        0.0010
     11 C         141.1776  145.9003  154.6580 C.ar    1  UNL1        0.0114
     12 C         142.1999  145.0596  155.3635 C.ar    1  UNL1        0.0578
     13 CL        143.2962  144.3986  154.5817 Cl      1  UNL1       -0.0822
     14 C         142.1259  144.8797  156.8509 C.ar    1  UNL1        0.0161
     15 O         142.0081  142.7894  163.0362 O.3     1  UNL1       -0.4426
     16 C         142.0991  142.4320  164.4901 C.ar    1  UNL1        0.3204
     17 N         143.3322  141.9712  165.2093 N.ar    1  UNL1       -0.0916
     18 N         142.9682  141.7271  166.6438 N.ar    1  UNL1       -0.1259
     19 C         141.5102  142.0370  166.8112 C.ar    1  UNL1        0.1689
     20 N         140.9731  142.4727  165.4802 N.ar    1  UNL1       -0.2635
     21 C         139.5583  142.8778  165.1901 C.3     1  UNL1        0.1366
     22 C         140.7267  141.9300  168.0860 C.ar    1  UNL1        0.0391
     23 C         140.6760  143.0906  169.0348 C.ar    1  UNL1        0.0237
     24 C         139.8926  142.9836  170.3094 C.ar    1  UNL1        0.0990
     25 N         139.1598  141.7159  170.6352 N.ar    1  UNL1       -0.2423
     26 C         139.2105  140.5553  169.6864 C.ar    1  UNL1        0.0990
     27 C         139.9940  140.6623  168.4118 C.ar    1  UNL1        0.0237
@<TRIPOS>BOND
     1     2     1    1
     2     2    15    1
     3    15    16    1
     4    16    17   ar
     5    17    18   ar
     6    18    19   ar
     7    19    22    1
     8    22    23   ar
     9    23    24   ar
    10    24    25   ar
    11    25    26   ar
    12    26    27   ar
    13    19    20   ar
    14    20    21    1
    15     2     3    1
    16     3     4   ar
    17     4     5   ar
    18     5     6   ar
    19     6     8    1
    20     8     9   ar
    21     9    10   ar
    22    10    11   ar
    23    11    12   ar
    24    12    13    1
    25    12    14   ar
    26     6     7   ar
    27    20    16   ar
    28     7     3   ar
    29    27    22   ar
    30    14     8   ar
@<TRIPOS>MOLECULE
*****
 27 30 0 0 0
SMALL
GASTEIGER

@<TRIPOS>ATOM
      1 C         144.1154  137.9819  161.6838 C.3     1  UNL1        0.0559
      2 C         143.5976  138.8261  162.8103 C.3     1  UNL1        0.2300
      3 C         142.1915  139.3473  162.7720 C.ar    1  UNL1        0.2207
      4 N         140.9547  138.5313  162.5388 N.ar    1  UNL1       -0.0565
      5 O         139.7743  139.4557  162.5829 O.2     1  UNL1       -0.3326
      6 C         140.2815  140.8431  162.8433 C.ar    1  UNL1        0.2598
      7 N         141.7755  140.7761  162.9602 N.ar    1  UNL1       -0.1876
      8 C         139.4422  142.0802  162.9653 C.ar    1  UNL1        0.0569
      9 C         138.1286  142.0271  163.6877 C.ar    1  UNL1        0.0048
     10 C         137.2892  143.2643  163.8098 C.ar    1  UNL1        0.0010
     11 C         137.7635  144.5546  163.2095 C.ar    1  UNL1        0.0114
     12 C         139.0770  144.6077  162.4872 C.ar    1  UNL1        0.0578
     13 CL        139.5512  145.8979  161.8869 Cl      1  UNL1       -0.0822
     14 C         139.9163  143.3705  162.3651 C.ar    1  UNL1        0.0161
     15 O         144.4857  139.1490  163.9753 O.3     1  UNL1       -0.4426
     16 C         143.8906  139.3624  165.3355 C.ar    1  UNL1        0.3204
     17 N         143.5584  138.2903  166.3307 N.ar    1  UNL1       -0.0916
     18 N         142.9857  138.9507  167.5497 N.ar    1  UNL1       -0.1259
     19 C         142.9639  140.4310  167.3079 C.ar    1  UNL1        0.1689
     20 N         143.5232  140.6854  165.9395 N.ar    1  UNL1       -0.2635
     21 C         143.6864  142.0272  165.2892 C.3     1  UNL1        0.1366
     22 C         142.4697  141.4737  168.2663 C.ar    1  UNL1        0.0391
     23 C         143.3537  141.9459  169.3823 C.ar    1  UNL1        0.0237
     24 C         142.8595  142.9887  170.3406 C.ar    1  UNL1        0.0990
     25 N         141.4812  143.5592  170.1829 N.ar    1  UNL1       -0.2423
     26 C         140.5972  143.0870  169.0669 C.ar    1  UNL1        0.0990
     27 C         141.0914  142.0443  168.1086 C.ar    1  UNL1        0.0237
@<TRIPOS>BOND
     1     2     1    1
     2     2    15    1
     3    15    16    1
     4    16    17   ar
     5    17    18   ar
     6    18    19   ar
     7    19    22    1
     8    22    23   ar
     9    23    24   ar
    10    24    25   ar
    11    25    26   ar
    12    26    27   ar
    13    19    20   ar
    14    20    21    1
    15     2     3    1
    16     3     4   ar
    17     4     5   ar
    18     5     6   ar
    19     6     8    1
    20     8     9   ar
    21     9    10   ar
    22    10    11   ar
    23    11    12   ar
    24    12    13    1
    25    12    14   ar
    26     6     7   ar
    27    20    16   ar
    28     7     3   ar
    29    27    22   ar
    30    14     8   ar
@<TRIPOS>MOLECULE
*****
 27 30 0 0 0
SMALL
GASTEIGER

@<TRIPOS>ATOM
      1 C         139.2891  137.8191  163.3462 C.3     1  UNL1        0.0559
      2 C         138.5436  138.9455  163.9984 C.3     1  UNL1        0.2300
      3 C         138.6188  139.1333  165.4848 C.ar    1  UNL1        0.2207
      4 N         137.7387  138.4706  166.5028 N.ar    1  UNL1       -0.0565
      5 O         138.1632  138.9445  167.8612 O.2     1  UNL1       -0.3326
      6 C         139.3055  139.9002  167.6827 C.ar    1  UNL1        0.2598
      7 N         139.5871  140.0168  166.2139 N.ar    1  UNL1       -0.1876
      8 C         140.0377  140.6138  168.7802 C.ar    1  UNL1        0.0569
      9 C         140.8276  139.8313  169.7871 C.ar    1  UNL1        0.0048
     10 C         141.5598  140.5449  170.8846 C.ar    1  UNL1        0.0010
     11 C         141.5022  142.0411  170.9752 C.ar    1  UNL1        0.0114
     12 C         140.7124  142.8236  169.9683 C.ar    1  UNL1        0.0578
     13 CL        140.6548  144.3197  170.0590 Cl      1  UNL1       -0.0822
     14 C         139.9801  142.1099  168.8708 C.ar    1  UNL1        0.0161
     15 O         137.7230  139.8841  163.1644 O.3     1  UNL1       -0.4426
     16 C         138.2897  140.4521  161.8971 C.ar    1  UNL1        0.3204
     17 N         137.9957  139.9719  160.5067 N.ar    1  UNL1       -0.0916
     18 N         138.7743  140.8231  159.5480 N.ar    1  UNL1       -0.1259
     19 C         139.5495  141.8294  160.3457 C.ar    1  UNL1        0.1689
     20 N         139.2500  141.6001  161.7975 N.ar    1  UNL1       -0.2635
     21 C         139.8121  142.3816  162.9478 C.3     1  UNL1        0.1366
     22 C         140.4637  142.8804  159.7893 C.ar    1  UNL1        0.0391
     23 C         141.7152  142.4795  159.0661 C.ar    1  UNL1        0.0237
     24 C         142.6293  143.5305  158.5098 C.ar    1  UNL1        0.0990
     25 N         142.2920  144.9826  158.6766 N.ar    1  UNL1       -0.2423
     26 C         141.0405  145.3835  159.3998 C.ar    1  UNL1        0.0990
     27 C         140.1264  144.3325  159.9561 C.ar    1  UNL1        0.0237
@<TRIPOS>BOND
     1     2     1    1
     2     2    15    1
     3    15    16    1
     4    16    17   ar
     5    17    18   ar
     6    18    19   ar
     7    19    22    1
     8    22    23   ar
     9    23    24   ar
    10    24    25   ar
    11    25    26   ar
    12    26    27   ar
    13    19    20   ar
    14    20    21    1
    15     2     3    1
    16     3     4   ar
    17     4     5   ar
    18     5     6   ar
    19     6     8    1
    20     8     9   ar
    21     9    10   ar
    22    10    11   ar
    23    11    12   ar
    24    12    13    1
    25    12    14   ar
    26     6     7   ar
    27    20    16   ar
    28     7     3   ar
    29    27    22   ar
    30    14     8   ar
