@<TRIPOS>MOLECULE
*****
 37 41 0 0 0
SMALL
GASTEIGER

@<TRIPOS>ATOM
      1 C         142.5590  137.8394  158.1846 C.2     1  UNL1        0.2425
      2 O         141.8276  139.1342  158.3808 O.2     1  UNL1       -0.2733
      3 N         143.1604  137.1317  159.3625 N.am    1  UNL1       -0.3018
      4 H         143.6404  136.2819  159.2337 H       1  UNL1        0.1495
      5 C         143.0302  137.7188  160.7367 C.3     1  UNL1        0.1035
      6 C         143.9429  138.4705  161.6598 C.3     1  UNL1        0.0933
      7 N         142.8462  138.5492  162.6801 N.3     1  UNL1       -0.2711
      8 C         141.9335  137.7976  161.7570 C.3     1  UNL1        0.0933
      9 C         142.7160  139.1363  164.0542 C.3     1  UNL1        0.0576
     10 C         142.9828  138.2866  165.2612 C.3     1  UNL1        0.0163
     11 C         142.8527  138.8736  166.6353 C.3     1  UNL1        0.0058
     12 C         142.4557  140.3105  166.8026 C.3     1  UNL1        0.0240
     13 C         142.1889  141.1602  165.5956 C.3     1  UNL1        0.0058
     14 C         142.3191  140.5731  164.2214 C.3     1  UNL1        0.0163
     15 C         142.3256  140.8975  168.1768 C.ar    1  UNL1       -0.0033
     16 C         143.1103  142.1210  168.5473 C.ar    1  UNL1       -0.0011
     17 C         142.9801  142.7079  169.9215 C.ar    1  UNL1        0.0204
     18 C         142.0651  142.0713  170.9253 C.ar    1  UNL1        0.0989
     19 N         141.2803  140.8479  170.5549 N.ar    1  UNL1       -0.2426
     20 C         141.4106  140.2610  169.1807 C.ar    1  UNL1        0.0946
     21 C         142.6892  137.2523  156.8104 C.3     1  UNL1        0.1747
     22 N         142.0133  135.9539  156.4824 N.pl3   1  UNL1       -0.3093
     23 H         141.0977  135.9532  156.1207 H       1  UNL1        0.1487
     24 C         145.4879  132.3698  158.2032 C.3     1  UNL1        0.1537
     25 N         144.3296  133.0092  157.4965 N.ar    1  UNL1       -0.2476
     26 N         143.9487  134.4586  157.5610 N.ar    1  UNL1       -0.1544
     27 C         142.7326  134.6567  156.7055 C.ar    1  UNL1        0.1500
     28 C         142.3620  133.3297  156.1123 C.ar    1  UNL1        0.0503
     29 C         141.2533  132.9171  155.1901 C.ar    1  UNL1        0.0082
     30 C         141.1316  131.4862  154.7568 C.ar    1  UNL1        0.0716
     31 C         142.1187  130.4680  155.2456 C.ar    1  UNL1        0.0054
     32 C         143.2274  130.8807  156.1678 C.ar    1  UNL1        0.0188
     33 C         143.3490  132.3116  156.6011 C.ar    1  UNL1        0.0807
     34 C         140.0229  131.0735  153.8346 C.3     1  UNL1        0.4186
     35 F         138.9142  130.6608  152.9125 F       1  UNL1       -0.1659
     36 F         139.3494  130.3549  154.9659 F       1  UNL1       -0.1659
     37 F         140.6963  131.7921  152.7032 F       1  UNL1       -0.1659
@<TRIPOS>BOND
     1    24    25    1
     2    25    26   ar
     3    26    27   ar
     4    27    22    1
     5    22    21    1
     6    21     1    1
     7     1     2    2
     8     1     3   am
     9     3     5    1
    10     5     6    1
    11     6     7    1
    12     9     7    1
    13     9    10    1
    14    10    11    1
    15    11    12    1
    16    12    15    1
    17    15    16   ar
    18    16    17   ar
    19    17    18   ar
    20    18    19   ar
    21    19    20   ar
    22    12    13    1
    23    13    14    1
    24     7     8    1
    25    27    28   ar
    26    28    29   ar
    27    29    30   ar
    28    30    34    1
    29    34    35    1
    30    34    36    1
    31    34    37    1
    32    30    31   ar
    33    31    32   ar
    34    32    33   ar
    35    33    25   ar
    36     8     5    1
    37    33    28   ar
    38    14     9    1
    39    20    15   ar
    40    22    23    1
    41     3     4    1
@<TRIPOS>MOLECULE
*****
 37 41 0 0 0
SMALL
GASTEIGER

@<TRIPOS>ATOM
      1 C         142.6664  138.6005  158.1496 C.2     1  UNL1        0.2425
      2 O         143.7916  139.3064  158.8464 O.2     1  UNL1       -0.2733
      3 N         141.3632  138.3830  158.8598 N.am    1  UNL1       -0.3018
      4 H         140.6247  137.9197  158.4025 H       1  UNL1        0.1495
      5 C         141.1854  138.8715  160.2669 C.3     1  UNL1        0.1035
      6 C         141.5920  138.3731  161.6221 C.3     1  UNL1        0.0933
      7 N         140.9338  139.5622  162.2568 N.3     1  UNL1       -0.2711
      8 C         140.5272  140.0605  160.9017 C.3     1  UNL1        0.0933
      9 C         140.7560  140.0507  163.6638 C.3     1  UNL1        0.0576
     10 C         139.6917  139.4537  164.5361 C.3     1  UNL1        0.0163
     11 C         139.5138  139.9421  165.9431 C.3     1  UNL1        0.0058
     12 C         140.4002  141.0277  166.4779 C.3     1  UNL1        0.0240
     13 C         141.4644  141.6247  165.6056 C.3     1  UNL1        0.0058
     14 C         141.6423  141.1363  164.1986 C.3     1  UNL1        0.0163
     15 C         140.2222  141.5160  167.8849 C.ar    1  UNL1       -0.0033
     16 C         140.6452  142.9067  168.2554 C.ar    1  UNL1       -0.0011
     17 C         140.4672  143.3949  169.6625 C.ar    1  UNL1        0.0204
     18 C         139.8662  142.4926  170.6991 C.ar    1  UNL1        0.0989
     19 N         139.4432  141.1020  170.3287 N.ar    1  UNL1       -0.2426
     20 C         139.6212  140.6137  168.9216 C.ar    1  UNL1        0.0946
     21 C         142.8443  138.1120  156.7426 C.3     1  UNL1        0.1747
     22 N         143.7044  136.9142  156.4676 N.pl3   1  UNL1       -0.3093
     23 H         144.5680  136.8119  156.9292 H       1  UNL1        0.1487
     24 C         141.5617  134.5947  152.2357 C.3     1  UNL1        0.1537
     25 N         142.2639  134.8062  153.5442 N.ar    1  UNL1       -0.2476
     26 N         142.5218  136.1290  154.2027 N.ar    1  UNL1       -0.1544
     27 C         143.2488  135.8724  155.4894 C.ar    1  UNL1        0.1500
     28 C         143.4402  134.3909  155.6261 C.ar    1  UNL1        0.0503
     29 C         144.0901  133.5568  156.6900 C.ar    1  UNL1        0.0082
     30 C         144.1313  132.0638  156.5517 C.ar    1  UNL1        0.0716
     31 C         143.5226  131.4049  155.3495 C.ar    1  UNL1        0.0054
     32 C         142.8727  132.2390  154.2856 C.ar    1  UNL1        0.0188
     33 C         142.8315  133.7320  154.4239 C.ar    1  UNL1        0.0807
     34 C         144.7812  131.2297  157.6157 C.3     1  UNL1        0.4186
     35 F         145.4311  130.3956  158.6795 F       1  UNL1       -0.1659
     36 F         145.3973  132.4631  158.2063 F       1  UNL1       -0.1659
     37 F         144.1650  129.9962  157.0251 F       1  UNL1       -0.1659
@<TRIPOS>BOND
     1    24    25    1
     2    25    26   ar
     3    26    27   ar
     4    27    22    1
     5    22    21    1
     6    21     1    1
     7     1     2    2
     8     1     3   am
     9     3     5    1
    10     5     6    1
    11     6     7    1
    12     9     7    1
    13     9    10    1
    14    10    11    1
    15    11    12    1
    16    12    15    1
    17    15    16   ar
    18    16    17   ar
    19    17    18   ar
    20    18    19   ar
    21    19    20   ar
    22    12    13    1
    23    13    14    1
    24     7     8    1
    25    27    28   ar
    26    28    29   ar
    27    29    30   ar
    28    30    34    1
    29    34    35    1
    30    34    36    1
    31    34    37    1
    32    30    31   ar
    33    31    32   ar
    34    32    33   ar
    35    33    25   ar
    36     8     5    1
    37    33    28   ar
    38    14     9    1
    39    20    15   ar
    40    22    23    1
    41     3     4    1
@<TRIPOS>MOLECULE
*****
 37 41 0 0 0
SMALL
GASTEIGER

@<TRIPOS>ATOM
      1 C         142.9532  139.3190  157.8425 C.2     1  UNL1        0.2425
      2 O         142.3307  140.6240  158.2418 O.2     1  UNL1       -0.2733
      3 N         143.2443  138.2776  158.8821 N.am    1  UNL1       -0.3018
      4 H         143.6529  137.4211  158.6200 H       1  UNL1        0.1495
      5 C         142.9128  138.5413  160.3211 C.3     1  UNL1        0.1035
      6 C         141.9036  138.0048  161.2925 C.3     1  UNL1        0.0933
      7 N         142.4440  138.9141  162.3561 N.3     1  UNL1       -0.2711
      8 C         143.4532  139.4505  161.3846 C.3     1  UNL1        0.0933
      9 C         142.1125  139.1778  163.7950 C.3     1  UNL1        0.0576
     10 C         140.8504  139.9051  164.1528 C.3     1  UNL1        0.0163
     11 C         140.5189  140.1687  165.5917 C.3     1  UNL1        0.0058
     12 C         141.4495  139.7051  166.6730 C.3     1  UNL1        0.0240
     13 C         142.7117  138.9778  166.3152 C.3     1  UNL1        0.0058
     14 C         143.0431  138.7142  164.8762 C.3     1  UNL1        0.0163
     15 C         141.1180  139.9688  168.1118 C.ar    1  UNL1       -0.0033
     16 C         139.7073  140.2866  168.5105 C.ar    1  UNL1       -0.0011
     17 C         139.3758  140.5503  169.9494 C.ar    1  UNL1        0.0204
     18 C         140.4551  140.4963  170.9898 C.ar    1  UNL1        0.0989
     19 N         141.8658  140.1785  170.5912 N.ar    1  UNL1       -0.2426
     20 C         142.1972  139.9148  169.1523 C.ar    1  UNL1        0.0946
     21 C         143.2847  139.0553  156.4035 C.3     1  UNL1        0.1747
     22 N         144.0182  137.8043  156.0199 N.pl3   1  UNL1       -0.3093
     23 H         144.9325  137.6488  156.3501 H       1  UNL1        0.1487
     24 C         141.1712  135.6110  152.1515 C.3     1  UNL1        0.1537
     25 N         142.0498  135.7820  153.3551 N.ar    1  UNL1       -0.2476
     26 N         142.4959  137.0880  153.9427 N.ar    1  UNL1       -0.1544
     27 C         143.3584  136.7901  155.1332 C.ar    1  UNL1        0.1500
     28 C         143.4454  135.3000  155.2814 C.ar    1  UNL1        0.0503
     29 C         144.1566  134.4299  156.2750 C.ar    1  UNL1        0.0082
     30 C         144.0589  132.9369  156.1697 C.ar    1  UNL1        0.0716
     31 C         143.2502  132.3138  155.0708 C.ar    1  UNL1        0.0054
     32 C         142.5390  133.1838  154.0771 C.ar    1  UNL1        0.0188
     33 C         142.6366  134.6769  154.1825 C.ar    1  UNL1        0.0807
     34 C         144.7701  132.0668  157.1633 C.3     1  UNL1        0.4186
     35 F         145.4813  131.1968  158.1569 F       1  UNL1       -0.1659
     36 F         144.5200  133.0861  158.2349 F       1  UNL1       -0.1659
     37 F         145.0203  131.0474  156.0918 F       1  UNL1       -0.1659
@<TRIPOS>BOND
     1    24    25    1
     2    25    26   ar
     3    26    27   ar
     4    27    22    1
     5    22    21    1
     6    21     1    1
     7     1     2    2
     8     1     3   am
     9     3     5    1
    10     5     6    1
    11     6     7    1
    12     9     7    1
    13     9    10    1
    14    10    11    1
    15    11    12    1
    16    12    15    1
    17    15    16   ar
    18    16    17   ar
    19    17    18   ar
    20    18    19   ar
    21    19    20   ar
    22    12    13    1
    23    13    14    1
    24     7     8    1
    25    27    28   ar
    26    28    29   ar
    27    29    30   ar
    28    30    34    1
    29    34    35    1
    30    34    36    1
    31    34    37    1
    32    30    31   ar
    33    31    32   ar
    34    32    33   ar
    35    33    25   ar
    36     8     5    1
    37    33    28   ar
    38    14     9    1
    39    20    15   ar
    40    22    23    1
    41     3     4    1
@<TRIPOS>MOLECULE
*****
 37 41 0 0 0
SMALL
GASTEIGER

@<TRIPOS>ATOM
      1 C         138.0991  142.6963  162.1458 C.2     1  UNL1        0.2425
      2 O         137.2246  141.4800  162.0684 O.2     1  UNL1       -0.2733
      3 N         139.3473  142.7765  161.3180 N.am    1  UNL1       -0.3018
      4 H         139.9213  143.5748  161.3688 H       1  UNL1        0.1495
      5 C         139.7210  141.6405  160.4126 C.3     1  UNL1        0.1035
      6 C         140.0771  141.5141  158.9608 C.3     1  UNL1        0.0933
      7 N         140.2496  140.0339  159.1321 N.3     1  UNL1       -0.2711
      8 C         139.8936  140.1603  160.5837 C.3     1  UNL1        0.0933
      9 C         140.6233  138.8978  158.2267 C.3     1  UNL1        0.0576
     10 C         139.6271  138.3672  157.2388 C.3     1  UNL1        0.0163
     11 C         140.0008  137.2312  156.3334 C.3     1  UNL1        0.0058
     12 C         141.3708  136.6257  156.4159 C.3     1  UNL1        0.0240
     13 C         142.3669  137.1564  157.4038 C.3     1  UNL1        0.0058
     14 C         141.9932  138.2924  158.3092 C.3     1  UNL1        0.0163
     15 C         141.7444  135.4897  155.5105 C.ar    1  UNL1       -0.0033
     16 C         141.4237  135.5604  154.0469 C.ar    1  UNL1       -0.0011
     17 C         141.7974  134.4242  153.1415 C.ar    1  UNL1        0.0204
     18 C         142.4917  133.2175  153.6998 C.ar    1  UNL1        0.0989
     19 N         142.8123  133.1468  155.1634 N.ar    1  UNL1       -0.2426
     20 C         142.4387  134.2829  156.0687 C.ar    1  UNL1        0.0946
     21 C         137.7254  143.8323  163.0512 C.3     1  UNL1        0.1747
     22 N         138.2961  143.9064  164.4365 N.pl3   1  UNL1       -0.3093
     23 H         137.7979  144.3664  165.1502 H       1  UNL1        0.1487
     24 C         143.4890  143.2242  165.1065 C.3     1  UNL1        0.1537
     25 N         142.0128  142.9660  165.0422 N.ar    1  UNL1       -0.2476
     26 N         140.9586  143.9646  164.6662 N.ar    1  UNL1       -0.1544
     27 C         139.6260  143.2795  164.7342 C.ar    1  UNL1        0.1500
     28 C         139.8565  141.8575  165.1523 C.ar    1  UNL1        0.0503
     29 C         138.9138  140.7142  165.3843 C.ar    1  UNL1        0.0082
     30 C         139.4462  139.3770  165.8066 C.ar    1  UNL1        0.0716
     31 C         140.9214  139.1832  165.9970 C.ar    1  UNL1        0.0054
     32 C         141.8642  140.3266  165.7650 C.ar    1  UNL1        0.0188
     33 C         141.3317  141.6637  165.3427 C.ar    1  UNL1        0.0807
     34 C         138.5034  138.2335  166.0387 C.3     1  UNL1        0.4186
     35 F         137.5607  137.0901  166.2707 F       1  UNL1       -0.1659
     36 F         137.5733  139.1502  166.7766 F       1  UNL1       -0.1659
     37 F         139.4336  137.3169  165.3007 F       1  UNL1       -0.1659
@<TRIPOS>BOND
     1    24    25    1
     2    25    26   ar
     3    26    27   ar
     4    27    22    1
     5    22    21    1
     6    21     1    1
     7     1     2    2
     8     1     3   am
     9     3     5    1
    10     5     6    1
    11     6     7    1
    12     9     7    1
    13     9    10    1
    14    10    11    1
    15    11    12    1
    16    12    15    1
    17    15    16   ar
    18    16    17   ar
    19    17    18   ar
    20    18    19   ar
    21    19    20   ar
    22    12    13    1
    23    13    14    1
    24     7     8    1
    25    27    28   ar
    26    28    29   ar
    27    29    30   ar
    28    30    34    1
    29    34    35    1
    30    34    36    1
    31    34    37    1
    32    30    31   ar
    33    31    32   ar
    34    32    33   ar
    35    33    25   ar
    36     8     5    1
    37    33    28   ar
    38    14     9    1
    39    20    15   ar
    40    22    23    1
    41     3     4    1
@<TRIPOS>MOLECULE
*****
 37 41 0 0 0
SMALL
GASTEIGER

@<TRIPOS>ATOM
      1 C         141.9227  144.0821  162.4772 C.2     1  UNL1        0.2425
      2 O         143.1239  144.9799  162.4441 O.2     1  UNL1       -0.2733
      3 N         141.7725  142.9923  161.4576 N.am    1  UNL1       -0.3018
      4 H         140.9841  142.4031  161.4793 H       1  UNL1        0.1495
      5 C         142.8236  142.8002  160.4048 C.3     1  UNL1        0.1035
      6 C         143.0462  143.3300  159.0192 C.3     1  UNL1        0.0933
      7 N         144.3101  142.5287  158.9160 N.3     1  UNL1       -0.2711
      8 C         144.0875  141.9991  160.3016 C.3     1  UNL1        0.0933
      9 C         145.3612  142.3367  157.8632 C.3     1  UNL1        0.0576
     10 C         145.0736  141.4844  156.6629 C.3     1  UNL1        0.0163
     11 C         146.1246  141.2923  155.6102 C.3     1  UNL1        0.0058
     12 C         147.4635  141.9526  155.7577 C.3     1  UNL1        0.0240
     13 C         147.7511  142.8049  156.9581 C.3     1  UNL1        0.0058
     14 C         146.7000  142.9969  158.0108 C.3     1  UNL1        0.0163
     15 C         148.5145  141.7605  154.7050 C.ar    1  UNL1       -0.0033
     16 C         148.1263  141.7164  153.2567 C.ar    1  UNL1       -0.0011
     17 C         149.1774  141.5243  152.2040 C.ar    1  UNL1        0.0204
     18 C         150.6168  141.3762  152.5995 C.ar    1  UNL1        0.0989
     19 N         151.0050  141.4203  154.0477 N.ar    1  UNL1       -0.2426
     20 C         149.9539  141.6124  155.1004 C.ar    1  UNL1        0.0946
     21 C         140.8715  144.2741  163.5300 C.3     1  UNL1        0.1747
     22 N         140.1623  143.0851  164.1073 N.pl3   1  UNL1       -0.3093
     23 H         139.1846  143.0059  164.0222 H       1  UNL1        0.1487
     24 C         143.3173  138.9550  165.0392 C.3     1  UNL1        0.1537
     25 N         142.3927  140.1185  165.2428 N.ar    1  UNL1       -0.2476
     26 N         141.8049  140.9771  164.1624 N.ar    1  UNL1       -0.1544
     27 C         140.9425  142.0169  164.8145 C.ar    1  UNL1        0.1500
     28 C         140.9973  141.8008  166.2978 C.ar    1  UNL1        0.0503
     29 C         140.3469  142.5209  167.4417 C.ar    1  UNL1        0.0082
     30 C         140.5927  142.0676  168.8502 C.ar    1  UNL1        0.0716
     31 C         141.4890  140.8944  169.1150 C.ar    1  UNL1        0.0054
     32 C         142.1395  140.1743  167.9711 C.ar    1  UNL1        0.0188
     33 C         141.8936  140.6276  166.5626 C.ar    1  UNL1        0.0807
     34 C         139.9422  142.7877  169.9942 C.3     1  UNL1        0.4186
     35 F         139.2918  143.5077  171.1380 F       1  UNL1       -0.1659
     36 F         140.7753  144.0008  169.7042 F       1  UNL1       -0.1659
     37 F         139.1091  141.5745  170.2841 F       1  UNL1       -0.1659
@<TRIPOS>BOND
     1    24    25    1
     2    25    26   ar
     3    26    27   ar
     4    27    22    1
     5    22    21    1
     6    21     1    1
     7     1     2    2
     8     1     3   am
     9     3     5    1
    10     5     6    1
    11     6     7    1
    12     9     7    1
    13     9    10    1
    14    10    11    1
    15    11    12    1
    16    12    15    1
    17    15    16   ar
    18    16    17   ar
    19    17    18   ar
    20    18    19   ar
    21    19    20   ar
    22    12    13    1
    23    13    14    1
    24     7     8    1
    25    27    28   ar
    26    28    29   ar
    27    29    30   ar
    28    30    34    1
    29    34    35    1
    30    34    36    1
    31    34    37    1
    32    30    31   ar
    33    31    32   ar
    34    32    33   ar
    35    33    25   ar
    36     8     5    1
    37    33    28   ar
    38    14     9    1
    39    20    15   ar
    40    22    23    1
    41     3     4    1
@<TRIPOS>MOLECULE
*****
 37 41 0 0 0
SMALL
GASTEIGER

@<TRIPOS>ATOM
      1 C         139.1285  140.0567  159.3746 C.2     1  UNL1        0.2425
      2 O         138.8067  138.7517  160.0405 O.2     1  UNL1       -0.2733
      3 N         139.9966  140.0807  158.1516 N.am    1  UNL1       -0.3018
      4 H         140.2078  140.9373  157.7146 H       1  UNL1        0.1495
      5 C         140.5429  138.7997  157.5945 C.3     1  UNL1        0.1035
      6 C         139.9457  137.5812  156.9550 C.3     1  UNL1        0.0933
      7 N         141.3154  136.9879  156.8065 N.3     1  UNL1       -0.2711
      8 C         141.9125  138.2064  157.4459 C.3     1  UNL1        0.0933
      9 C         141.8617  135.7069  156.2493 C.3     1  UNL1        0.0576
     10 C         143.0114  135.0236  156.9285 C.3     1  UNL1        0.0163
     11 C         143.5577  133.7426  156.3714 C.3     1  UNL1        0.0058
     12 C         142.9544  133.1447  155.1350 C.3     1  UNL1        0.0240
     13 C         141.8047  133.8280  154.4558 C.3     1  UNL1        0.0058
     14 C         141.2584  135.1091  155.0130 C.3     1  UNL1        0.0163
     15 C         143.5007  131.8637  154.5780 C.ar    1  UNL1       -0.0033
     16 C         144.3665  130.9840  155.4304 C.ar    1  UNL1       -0.0011
     17 C         144.9128  129.7029  154.8732 C.ar    1  UNL1        0.0204
     18 C         144.5934  129.3016  153.4636 C.ar    1  UNL1        0.0989
     19 N         143.7277  130.1812  152.6112 N.ar    1  UNL1       -0.2426
     20 C         143.1814  131.4623  153.1683 C.ar    1  UNL1        0.0946
     21 C         138.5822  141.3378  159.9318 C.3     1  UNL1        0.1747
     22 N         137.9512  141.3551  161.2926 N.pl3   1  UNL1       -0.3093
     23 H         137.0295  141.0304  161.4120 H       1  UNL1        0.1487
     24 C         140.9563  144.3984  164.3891 C.3     1  UNL1        0.1537
     25 N         140.1059  143.2659  163.8947 N.ar    1  UNL1       -0.2476
     26 N         139.4885  143.1566  162.5321 N.ar    1  UNL1       -0.1544
     27 C         138.7247  141.8671  162.4714 C.ar    1  UNL1        0.1500
     28 C         138.8700  141.1794  163.7966 C.ar    1  UNL1        0.0503
     29 C         138.3353  139.8778  164.3159 C.ar    1  UNL1        0.0082
     30 C         138.6543  139.4406  165.7148 C.ar    1  UNL1        0.0716
     31 C         139.5080  140.3052  166.5945 C.ar    1  UNL1        0.0054
     32 C         140.0427  141.6068  166.0752 C.ar    1  UNL1        0.0188
     33 C         139.7237  142.0440  164.6762 C.ar    1  UNL1        0.0807
     34 C         138.1196  138.1389  166.2342 C.3     1  UNL1        0.4186
     35 F         137.5850  136.8372  166.7535 F       1  UNL1       -0.1659
     36 F         138.7665  137.4166  165.0898 F       1  UNL1       -0.1659
     37 F         137.4728  138.8612  167.3787 F       1  UNL1       -0.1659
@<TRIPOS>BOND
     1    24    25    1
     2    25    26   ar
     3    26    27   ar
     4    27    22    1
     5    22    21    1
     6    21     1    1
     7     1     2    2
     8     1     3   am
     9     3     5    1
    10     5     6    1
    11     6     7    1
    12     9     7    1
    13     9    10    1
    14    10    11    1
    15    11    12    1
    16    12    15    1
    17    15    16   ar
    18    16    17   ar
    19    17    18   ar
    20    18    19   ar
    21    19    20   ar
    22    12    13    1
    23    13    14    1
    24     7     8    1
    25    27    28   ar
    26    28    29   ar
    27    29    30   ar
    28    30    34    1
    29    34    35    1
    30    34    36    1
    31    34    37    1
    32    30    31   ar
    33    31    32   ar
    34    32    33   ar
    35    33    25   ar
    36     8     5    1
    37    33    28   ar
    38    14     9    1
    39    20    15   ar
    40    22    23    1
    41     3     4    1
@<TRIPOS>MOLECULE
*****
 37 41 0 0 0
SMALL
GASTEIGER

@<TRIPOS>ATOM
      1 C         139.3983  143.9565  162.0017 C.2     1  UNL1        0.2425
      2 O         140.6632  143.4935  162.6617 O.2     1  UNL1       -0.2733
      3 N         139.3415  144.1049  160.5101 N.am    1  UNL1       -0.3018
      4 H         138.5113  144.4088  160.0769 H       1  UNL1        0.1495
      5 C         140.5496  143.7901  159.6786 C.3     1  UNL1        0.1035
      6 C         141.2303  142.5305  159.2311 C.3     1  UNL1        0.0933
      7 N         142.2581  143.3448  158.5027 N.3     1  UNL1       -0.2711
      8 C         141.5773  144.6043  158.9502 C.3     1  UNL1        0.0933
      9 C         143.4662  143.0301  157.6712 C.3     1  UNL1        0.0576
     10 C         143.3693  143.0384  156.1743 C.3     1  UNL1        0.0163
     11 C         144.5773  142.7237  155.3428 C.3     1  UNL1        0.0058
     12 C         145.8824  142.4005  156.0081 C.3     1  UNL1        0.0240
     13 C         145.9792  142.3922  157.5050 C.3     1  UNL1        0.0058
     14 C         144.7711  142.7069  158.3365 C.3     1  UNL1        0.0163
     15 C         147.0904  142.0858  155.1765 C.ar    1  UNL1       -0.0033
     16 C         148.4400  141.9827  155.8230 C.ar    1  UNL1       -0.0011
     17 C         149.6479  141.6679  154.9913 C.ar    1  UNL1        0.0204
     18 C         149.5063  141.4563  153.5131 C.ar    1  UNL1        0.0989
     19 N         148.1568  141.5594  152.8665 N.ar    1  UNL1       -0.2426
     20 C         146.9488  141.8742  153.6982 C.ar    1  UNL1        0.0946
     21 C         138.1902  144.2713  162.8332 C.3     1  UNL1        0.1747
     22 N         137.3067  143.1621  163.3225 N.pl3   1  UNL1       -0.3093
     23 H         136.4955  143.3707  163.8399 H       1  UNL1        0.1487
     24 C         138.0812  138.6123  160.7573 C.3     1  UNL1        0.1537
     25 N         138.0152  139.6438  161.8443 N.ar    1  UNL1       -0.2476
     26 N         137.5647  141.0656  161.6844 N.ar    1  UNL1       -0.1544
     27 C         137.6592  141.7351  163.0234 C.ar    1  UNL1        0.1500
     28 C         138.1681  140.7271  164.0108 C.ar    1  UNL1        0.0503
     29 C         138.4596  140.8192  165.4793 C.ar    1  UNL1        0.0082
     30 C         138.9710  139.6188  166.2191 C.ar    1  UNL1        0.0716
     31 C         139.1911  138.3263  165.4904 C.ar    1  UNL1        0.0054
     32 C         138.8996  138.2342  164.0219 C.ar    1  UNL1        0.0188
     33 C         138.3881  139.4346  163.2821 C.ar    1  UNL1        0.0807
     34 C         139.2625  139.7108  167.6877 C.3     1  UNL1        0.4186
     35 F         139.5539  139.8028  169.1562 F       1  UNL1       -0.1659
     36 F         137.9415  139.0678  167.9901 F       1  UNL1       -0.1659
     37 F         140.5835  140.3539  167.3852 F       1  UNL1       -0.1659
@<TRIPOS>BOND
     1    24    25    1
     2    25    26   ar
     3    26    27   ar
     4    27    22    1
     5    22    21    1
     6    21     1    1
     7     1     2    2
     8     1     3   am
     9     3     5    1
    10     5     6    1
    11     6     7    1
    12     9     7    1
    13     9    10    1
    14    10    11    1
    15    11    12    1
    16    12    15    1
    17    15    16   ar
    18    16    17   ar
    19    17    18   ar
    20    18    19   ar
    21    19    20   ar
    22    12    13    1
    23    13    14    1
    24     7     8    1
    25    27    28   ar
    26    28    29   ar
    27    29    30   ar
    28    30    34    1
    29    34    35    1
    30    34    36    1
    31    34    37    1
    32    30    31   ar
    33    31    32   ar
    34    32    33   ar
    35    33    25   ar
    36     8     5    1
    37    33    28   ar
    38    14     9    1
    39    20    15   ar
    40    22    23    1
    41     3     4    1
@<TRIPOS>MOLECULE
*****
 37 41 0 0 0
SMALL
GASTEIGER

@<TRIPOS>ATOM
      1 C         138.8560  141.1379  158.3811 C.2     1  UNL1        0.2425
      2 O         138.0235  139.9125  158.6163 O.2     1  UNL1       -0.2733
      3 N         140.1977  141.0179  157.7214 N.am    1  UNL1       -0.3018
      4 H         140.7441  141.8222  157.5670 H       1  UNL1        0.1495
      5 C         140.7070  139.6723  157.2968 C.3     1  UNL1        0.1035
      6 C         140.7504  138.3092  157.9216 C.3     1  UNL1        0.0933
      7 N         141.4271  137.7694  156.6965 N.3     1  UNL1       -0.2711
      8 C         141.3837  139.1325  156.0719 C.3     1  UNL1        0.0933
      9 C         141.9364  136.4239  156.2720 C.3     1  UNL1        0.0576
     10 C         141.1335  135.5830  155.3242 C.3     1  UNL1        0.0163
     11 C         141.6427  134.2375  154.8997 C.3     1  UNL1        0.0058
     12 C         142.9549  133.7328  155.4229 C.3     1  UNL1        0.0240
     13 C         143.7577  134.5738  156.3706 C.3     1  UNL1        0.0058
     14 C         143.2485  135.9193  156.7952 C.3     1  UNL1        0.0163
     15 C         143.4640  132.3874  154.9983 C.ar    1  UNL1       -0.0033
     16 C         144.4070  131.6284  155.8842 C.ar    1  UNL1       -0.0011
     17 C         144.9161  130.2829  155.4594 C.ar    1  UNL1        0.0204
     18 C         144.4822  129.6963  154.1488 C.ar    1  UNL1        0.0989
     19 N         143.5392  130.4552  153.2629 N.ar    1  UNL1       -0.2426
     20 C         143.0301  131.8007  153.6876 C.ar    1  UNL1        0.0946
     21 C         138.3467  142.4834  158.8056 C.3     1  UNL1        0.1747
     22 N         139.3033  143.6248  158.9859 N.pl3   1  UNL1       -0.3093
     23 H         139.1894  144.4501  158.4613 H       1  UNL1        0.1487
     24 C         144.1123  142.8980  161.0417 C.3     1  UNL1        0.1537
     25 N         142.6439  143.1746  160.9103 N.ar    1  UNL1       -0.2476
     26 N         141.8604  143.1891  159.6312 N.ar    1  UNL1       -0.1544
     27 C         140.4335  143.5086  159.9653 C.ar    1  UNL1        0.1500
     28 C         140.3350  143.6916  161.4509 C.ar    1  UNL1        0.0503
     29 C         139.1779  144.0195  162.3472 C.ar    1  UNL1        0.0082
     30 C         139.3869  144.1409  163.8276 C.ar    1  UNL1        0.0716
     31 C         140.7530  143.9345  164.4116 C.ar    1  UNL1        0.0054
     32 C         141.9101  143.6066  163.5153 C.ar    1  UNL1        0.0188
     33 C         141.7011  143.4851  162.0349 C.ar    1  UNL1        0.0807
     34 C         138.2297  144.4689  164.7240 C.3     1  UNL1        0.4186
     35 F         137.0726  144.7968  165.6204 F       1  UNL1       -0.1659
     36 F         137.3010  144.4071  163.5477 F       1  UNL1       -0.1659
     37 F         139.1584  144.5306  165.9003 F       1  UNL1       -0.1659
@<TRIPOS>BOND
     1    24    25    1
     2    25    26   ar
     3    26    27   ar
     4    27    22    1
     5    22    21    1
     6    21     1    1
     7     1     2    2
     8     1     3   am
     9     3     5    1
    10     5     6    1
    11     6     7    1
    12     9     7    1
    13     9    10    1
    14    10    11    1
    15    11    12    1
    16    12    15    1
    17    15    16   ar
    18    16    17   ar
    19    17    18   ar
    20    18    19   ar
    21    19    20   ar
    22    12    13    1
    23    13    14    1
    24     7     8    1
    25    27    28   ar
    26    28    29   ar
    27    29    30   ar
    28    30    34    1
    29    34    35    1
    30    34    36    1
    31    34    37    1
    32    30    31   ar
    33    31    32   ar
    34    32    33   ar
    35    33    25   ar
    36     8     5    1
    37    33    28   ar
    38    14     9    1
    39    20    15   ar
    40    22    23    1
    41     3     4    1
@<TRIPOS>MOLECULE
*****
 37 41 0 0 0
SMALL
GASTEIGER

@<TRIPOS>ATOM
      1 C         142.3602  144.6153  163.0975 C.2     1  UNL1        0.2425
      2 O         140.9977  144.1032  163.4599 O.2     1  UNL1       -0.2733
      3 N         142.7367  144.7904  161.6561 N.am    1  UNL1       -0.3018
      4 H         143.6309  145.1265  161.4182 H       1  UNL1        0.1495
      5 C         141.7507  144.4532  160.5772 C.3     1  UNL1        0.1035
      6 C         140.4870  145.0767  160.0626 C.3     1  UNL1        0.0933
      7 N         140.3561  143.9766  159.0514 N.3     1  UNL1       -0.2711
      8 C         141.6197  143.3532  159.5659 C.3     1  UNL1        0.0933
      9 C         139.3701  143.6395  157.9724 C.3     1  UNL1        0.0576
     10 C         139.4487  144.3287  156.6425 C.3     1  UNL1        0.0163
     11 C         138.4628  143.9916  155.5636 C.3     1  UNL1        0.0058
     12 C         137.3980  142.9652  155.8146 C.3     1  UNL1        0.0240
     13 C         137.3193  142.2760  157.1445 C.3     1  UNL1        0.0058
     14 C         138.3053  142.6131  158.2234 C.3     1  UNL1        0.0163
     15 C         136.4120  142.6282  154.7356 C.ar    1  UNL1       -0.0033
     16 C         135.3629  141.5839  154.9777 C.ar    1  UNL1       -0.0011
     17 C         134.3769  141.2470  153.8987 C.ar    1  UNL1        0.0204
     18 C         134.4401  141.9543  152.5774 C.ar    1  UNL1        0.0989
     19 N         135.4892  142.9986  152.3352 N.ar    1  UNL1       -0.2426
     20 C         136.4752  143.3356  153.4143 C.ar    1  UNL1        0.0946
     21 C         143.3462  144.9524  164.1764 C.3     1  UNL1        0.1747
     22 N         144.3303  143.9205  164.6422 N.pl3   1  UNL1       -0.3093
     23 H         145.2550  144.1828  164.8552 H       1  UNL1        0.1487
     24 C         143.2117  138.8811  163.5314 C.3     1  UNL1        0.1537
     25 N         143.3913  140.1726  164.2730 N.ar    1  UNL1       -0.2476
     26 N         143.8817  141.4640  163.6885 N.ar    1  UNL1       -0.1544
     27 C         143.9054  142.4889  164.7836 C.ar    1  UNL1        0.1500
     28 C         143.4296  141.8308  166.0448 C.ar    1  UNL1        0.0503
     29 C         143.2447  142.3502  167.4397 C.ar    1  UNL1        0.0082
     30 C         142.7420  141.4380  168.5191 C.ar    1  UNL1        0.0716
     31 C         142.4243  140.0064  168.2036 C.ar    1  UNL1        0.0054
     32 C         142.6092  139.4870  166.8086 C.ar    1  UNL1        0.0188
     33 C         143.1119  140.3992  165.7292 C.ar    1  UNL1        0.0807
     34 C         142.5571  141.9574  169.9142 C.3     1  UNL1        0.4186
     35 F         142.3722  142.4767  171.3092 F       1  UNL1       -0.1659
     36 F         143.1558  140.6964  170.4630 F       1  UNL1       -0.1659
     37 F         141.9584  143.2185  169.3654 F       1  UNL1       -0.1659
@<TRIPOS>BOND
     1    24    25    1
     2    25    26   ar
     3    26    27   ar
     4    27    22    1
     5    22    21    1
     6    21     1    1
     7     1     2    2
     8     1     3   am
     9     3     5    1
    10     5     6    1
    11     6     7    1
    12     9     7    1
    13     9    10    1
    14    10    11    1
    15    11    12    1
    16    12    15    1
    17    15    16   ar
    18    16    17   ar
    19    17    18   ar
    20    18    19   ar
    21    19    20   ar
    22    12    13    1
    23    13    14    1
    24     7     8    1
    25    27    28   ar
    26    28    29   ar
    27    29    30   ar
    28    30    34    1
    29    34    35    1
    30    34    36    1
    31    34    37    1
    32    30    31   ar
    33    31    32   ar
    34    32    33   ar
    35    33    25   ar
    36     8     5    1
    37    33    28   ar
    38    14     9    1
    39    20    15   ar
    40    22    23    1
    41     3     4    1
