@<TRIPOS>MOLECULE
*****
 40 44 0 0 0
SMALL
GASTEIGER

@<TRIPOS>ATOM
      1 C         143.7918  140.8622  161.3715 C.ar    1  UNL1        0.0041
      2 C         144.4858  142.1399  161.0033 C.ar    1  UNL1        0.0002
      3 C         144.8058  142.4328  159.5674 C.ar    1  UNL1        0.0015
      4 C         144.4317  141.4480  158.4997 C.ar    1  UNL1        0.0192
      5 C         143.7377  140.1702  158.8678 C.ar    1  UNL1        0.0856
      6 N         143.3636  139.1853  157.8001 N.ar    1  UNL1       -0.2264
      7 C         142.6696  137.9075  158.1682 C.ar    1  UNL1        0.1666
      8 N         142.3497  137.6145  159.6042 N.ar    1  UNL1       -0.2120
      9 C         142.7237  138.5994  160.6719 C.ar    1  UNL1        0.1318
     10 C         143.4178  139.8773  160.3037 C.ar    1  UNL1        0.0491
     11 C         142.8318  139.9833  165.6792 C.ar    1  UNL1        0.0534
     12 C         144.0393  139.3654  165.0388 C.ar    1  UNL1        0.0045
     13 C         144.3593  139.6584  163.6028 C.ar    1  UNL1        0.0001
     14 C         143.4718  140.5692  162.8074 C.ar    1  UNL1        0.0001
     15 C         142.2644  141.1871  163.4479 C.ar    1  UNL1        0.0001
     16 C         141.9444  140.8942  164.8837 C.ar    1  UNL1        0.0045
     17 O         143.3050  138.6620  167.8655 O.2     1  UNL1       -0.2701
     18 C         142.5118  139.6904  167.1151 C.2     1  UNL1        0.2460
     19 N         141.3987  140.4260  167.8005 N.am    1  UNL1       -0.2936
     20 H         140.8781  141.1010  167.3079 H       1  UNL1        0.1500
     21 C         141.0786  140.1331  169.2364 C.3     1  UNL1        0.1941
     22 C         139.6555  140.1652  169.7092 C.3     1  UNL1        0.4154
     23 F         138.2324  140.1973  170.1821 F       1  UNL1       -0.1682
     24 F         139.2056  140.5437  168.3293 F       1  UNL1       -0.1682
     25 F         140.1054  139.7867  171.0892 F       1  UNL1       -0.1682
     26 C         142.2956  136.9226  157.1005 C.ar    1  UNL1        0.0741
     27 C         141.0198  137.0985  156.3315 C.ar    1  UNL1        0.1052
     28 N         140.6457  136.1136  155.2638 N.ar    1  UNL1       -0.2223
     29 C         141.5475  134.9528  154.9650 C.ar    1  UNL1        0.1989
     30 N         142.8234  134.7769  155.7340 N.ar    1  UNL1       -0.2223
     31 C         143.1974  135.7617  156.8017 C.ar    1  UNL1        0.1052
     32 N         142.4038  138.3065  162.1078 N.pl3   1  UNL1       -0.3131
     33 H         143.0276  138.5832  162.8174 H       1  UNL1        0.1485
     34 C         141.1334  137.5921  162.4625 C.3     1  UNL1        0.1348
     35 C         140.1522  138.2284  163.4018 C.ar    1  UNL1        0.0788
     36 C         140.0316  137.7298  164.8113 C.ar    1  UNL1        0.0165
     37 C         139.0504  138.3662  165.7507 C.ar    1  UNL1        0.0029
     38 C         138.1898  139.5012  165.2804 C.ar    1  UNL1        0.0207
     39 C         138.3104  139.9998  163.8708 C.ar    1  UNL1        0.0985
     40 N         139.2916  139.3634  162.9316 N.ar    1  UNL1       -0.2464
@<TRIPOS>BOND
     1    17    18    2
     2    18    19   am
     3    19    21    1
     4    21    22    1
     5    22    23    1
     6    22    24    1
     7    22    25    1
     8    18    11    1
     9    11    12   ar
    10    12    13   ar
    11    13    14   ar
    12    14     1    1
    13     1     2   ar
    14     2     3   ar
    15     3     4   ar
    16     4     5   ar
    17     5     6   ar
    18     6     7   ar
    19     7    26    1
    20    26    27   ar
    21    27    28   ar
    22    28    29   ar
    23    29    30   ar
    24    30    31   ar
    25     7     8   ar
    26     8     9   ar
    27     9    32    1
    28    32    34    1
    29    34    35    1
    30    35    36   ar
    31    36    37   ar
    32    37    38   ar
    33    38    39   ar
    34    39    40   ar
    35     9    10   ar
    36    14    15   ar
    37    15    16   ar
    38    16    11   ar
    39    10     1   ar
    40    10     5   ar
    41    31    26   ar
    42    40    35   ar
    43    19    20    1
    44    32    33    1
@<TRIPOS>MOLECULE
*****
 40 44 0 0 0
SMALL
GASTEIGER

@<TRIPOS>ATOM
      1 C         140.9102  138.6341  161.3113 C.ar    1  UNL1        0.0041
      2 C         142.1969  137.9116  161.0424 C.ar    1  UNL1        0.0002
      3 C         142.7046  137.7821  159.6369 C.ar    1  UNL1        0.0015
      4 C         141.9257  138.3750  158.5004 C.ar    1  UNL1        0.0192
      5 C         140.6390  139.0975  158.7693 C.ar    1  UNL1        0.0856
      6 N         139.8601  139.6905  157.6327 N.ar    1  UNL1       -0.2264
      7 C         138.5734  140.4130  157.9016 C.ar    1  UNL1        0.1666
      8 N         138.0656  140.5426  159.3072 N.ar    1  UNL1       -0.2120
      9 C         138.8445  139.9496  160.4437 C.ar    1  UNL1        0.1318
     10 C         140.1313  139.2271  160.1747 C.ar    1  UNL1        0.0491
     11 C         139.3866  139.0229  165.5277 C.ar    1  UNL1        0.0534
     12 C         140.2972  140.0708  164.9597 C.ar    1  UNL1        0.0045
     13 C         140.8051  139.9412  163.5542 C.ar    1  UNL1        0.0001
     14 C         140.4023  138.7637  162.7168 C.ar    1  UNL1        0.0001
     15 C         139.4917  137.7158  163.2848 C.ar    1  UNL1        0.0001
     16 C         138.9838  137.8454  164.6902 C.ar    1  UNL1        0.0045
     17 O         137.6764  138.3699  167.3712 O.2     1  UNL1       -0.2701
     18 C         138.8787  139.1524  166.9331 C.2     1  UNL1        0.2460
     19 N         139.5733  140.0645  167.9004 N.am    1  UNL1       -0.2936
     20 H         140.3624  140.5781  167.6129 H       1  UNL1        0.1500
     21 C         139.0654  140.1941  169.3059 C.3     1  UNL1        0.1941
     22 C         139.9691  140.7124  170.3851 C.3     1  UNL1        0.4154
     23 F         140.8728  141.2307  171.4643 F       1  UNL1       -0.1682
     24 F         140.7085  139.4073  170.3928 F       1  UNL1       -0.1682
     25 F         139.2297  142.0174  170.3774 F       1  UNL1       -0.1682
     26 C         137.7945  141.0059  156.7651 C.ar    1  UNL1        0.0741
     27 C         137.3526  142.4380  156.8253 C.ar    1  UNL1        0.1052
     28 N         136.5737  143.0310  155.6887 N.ar    1  UNL1       -0.2223
     29 C         136.2367  142.1918  154.4920 C.ar    1  UNL1        0.1989
     30 N         136.6787  140.7596  154.4318 N.ar    1  UNL1       -0.2223
     31 C         137.4576  140.1666  155.5683 C.ar    1  UNL1        0.1052
     32 N         138.3367  140.0792  161.8491 N.pl3   1  UNL1       -0.3131
     33 H         138.6227  139.4356  162.5371 H       1  UNL1        0.1485
     34 C         137.3932  141.1893  162.2064 C.3     1  UNL1        0.1348
     35 C         137.9187  142.4497  162.8269 C.ar    1  UNL1        0.0788
     36 C         137.9067  142.6131  164.3179 C.ar    1  UNL1        0.0165
     37 C         138.4322  143.8736  164.9386 C.ar    1  UNL1        0.0029
     38 C         138.9698  144.9706  164.0681 C.ar    1  UNL1        0.0207
     39 C         138.9818  144.8071  162.5771 C.ar    1  UNL1        0.0985
     40 N         138.4563  143.5467  161.9565 N.ar    1  UNL1       -0.2464
@<TRIPOS>BOND
     1    17    18    2
     2    18    19   am
     3    19    21    1
     4    21    22    1
     5    22    23    1
     6    22    24    1
     7    22    25    1
     8    18    11    1
     9    11    12   ar
    10    12    13   ar
    11    13    14   ar
    12    14     1    1
    13     1     2   ar
    14     2     3   ar
    15     3     4   ar
    16     4     5   ar
    17     5     6   ar
    18     6     7   ar
    19     7    26    1
    20    26    27   ar
    21    27    28   ar
    22    28    29   ar
    23    29    30   ar
    24    30    31   ar
    25     7     8   ar
    26     8     9   ar
    27     9    32    1
    28    32    34    1
    29    34    35    1
    30    35    36   ar
    31    36    37   ar
    32    37    38   ar
    33    38    39   ar
    34    39    40   ar
    35     9    10   ar
    36    14    15   ar
    37    15    16   ar
    38    16    11   ar
    39    10     1   ar
    40    10     5   ar
    41    31    26   ar
    42    40    35   ar
    43    19    20    1
    44    32    33    1
@<TRIPOS>MOLECULE
*****
 40 44 0 0 0
SMALL
GASTEIGER

@<TRIPOS>ATOM
      1 C         143.8912  141.1149  160.8678 C.ar    1  UNL1        0.0041
      2 C         144.5175  142.3675  160.3304 C.ar    1  UNL1        0.0002
      3 C         144.7700  142.5079  158.8585 C.ar    1  UNL1        0.0015
      4 C         144.3962  141.3957  157.9240 C.ar    1  UNL1        0.0192
      5 C         143.7699  140.1431  158.4614 C.ar    1  UNL1        0.0856
      6 N         143.3961  139.0310  157.5268 N.ar    1  UNL1       -0.2264
      7 C         142.7698  137.7784  158.0642 C.ar    1  UNL1        0.1666
      8 N         142.5172  137.6380  159.5361 N.ar    1  UNL1       -0.2120
      9 C         142.8910  138.7501  160.4707 C.ar    1  UNL1        0.1318
     10 C         143.5174  140.0027  159.9332 C.ar    1  UNL1        0.0491
     11 C         143.1335  140.6936  165.2836 C.ar    1  UNL1        0.0534
     12 C         144.3820  140.1229  164.6790 C.ar    1  UNL1        0.0045
     13 C         144.6346  140.2633  163.2071 C.ar    1  UNL1        0.0001
     14 C         143.6386  140.9745  162.3397 C.ar    1  UNL1        0.0001
     15 C         142.3901  141.5452  162.9443 C.ar    1  UNL1        0.0001
     16 C         142.1375  141.4048  164.4161 C.ar    1  UNL1        0.0045
     17 O         142.6268  139.1984  167.3469 O.2     1  UNL1       -0.2701
     18 C         142.8809  140.5532  166.7554 C.2     1  UNL1        0.2460
     19 N         142.8825  141.7676  167.6358 N.am    1  UNL1       -0.2936
     20 H         143.0493  142.6569  167.2476 H       1  UNL1        0.1500
     21 C         142.6299  141.6273  169.1078 C.3     1  UNL1        0.1941
     22 C         143.0353  142.7248  170.0463 C.3     1  UNL1        0.4154
     23 F         143.4407  143.8224  170.9848 F       1  UNL1       -0.1682
     24 F         141.5934  143.0870  170.2456 F       1  UNL1       -0.1682
     25 F         144.4772  142.3627  169.8470 F       1  UNL1       -0.1682
     26 C         142.3960  136.6662  157.1296 C.ar    1  UNL1        0.0741
     27 C         143.1857  135.3909  157.1277 C.ar    1  UNL1        0.1052
     28 N         142.8119  134.2788  156.1931 N.ar    1  UNL1       -0.2223
     29 C         141.6484  134.4419  155.2606 C.ar    1  UNL1        0.1989
     30 N         140.8587  135.7172  155.2625 N.ar    1  UNL1       -0.2223
     31 C         141.2325  136.8294  156.1970 C.ar    1  UNL1        0.1052
     32 N         142.6385  138.6097  161.9425 N.pl3   1  UNL1       -0.3131
     33 H         143.2307  139.0583  162.5886 H       1  UNL1        0.1485
     34 C         141.4837  137.7859  162.4302 C.3     1  UNL1        0.1348
     35 C         140.4430  138.4037  163.3163 C.ar    1  UNL1        0.0788
     36 C         140.4306  138.0976  164.7846 C.ar    1  UNL1        0.0165
     37 C         139.3898  138.7154  165.6708 C.ar    1  UNL1        0.0029
     38 C         138.3615  139.6392  165.0886 C.ar    1  UNL1        0.0207
     39 C         138.3739  139.9452  163.6201 C.ar    1  UNL1        0.0985
     40 N         139.4146  139.3275  162.7340 N.ar    1  UNL1       -0.2464
@<TRIPOS>BOND
     1    17    18    2
     2    18    19   am
     3    19    21    1
     4    21    22    1
     5    22    23    1
     6    22    24    1
     7    22    25    1
     8    18    11    1
     9    11    12   ar
    10    12    13   ar
    11    13    14   ar
    12    14     1    1
    13     1     2   ar
    14     2     3   ar
    15     3     4   ar
    16     4     5   ar
    17     5     6   ar
    18     6     7   ar
    19     7    26    1
    20    26    27   ar
    21    27    28   ar
    22    28    29   ar
    23    29    30   ar
    24    30    31   ar
    25     7     8   ar
    26     8     9   ar
    27     9    32    1
    28    32    34    1
    29    34    35    1
    30    35    36   ar
    31    36    37   ar
    32    37    38   ar
    33    38    39   ar
    34    39    40   ar
    35     9    10   ar
    36    14    15   ar
    37    15    16   ar
    38    16    11   ar
    39    10     1   ar
    40    10     5   ar
    41    31    26   ar
    42    40    35   ar
    43    19    20    1
    44    32    33    1
@<TRIPOS>MOLECULE
*****
 40 44 0 0 0
SMALL
GASTEIGER

@<TRIPOS>ATOM
      1 C         143.9631  141.2910  160.3250 C.ar    1  UNL1        0.0041
      2 C         144.6086  142.4765  159.6710 C.ar    1  UNL1        0.0002
      3 C         144.8663  142.4699  158.1933 C.ar    1  UNL1        0.0015
      4 C         144.4784  141.2778  157.3697 C.ar    1  UNL1        0.0192
      5 C         143.8328  140.0923  158.0237 C.ar    1  UNL1        0.0856
      6 N         143.4450  138.9002  157.2001 N.ar    1  UNL1       -0.2264
      7 C         142.7994  137.7147  157.8541 C.ar    1  UNL1        0.1666
      8 N         142.5417  137.7212  159.3318 N.ar    1  UNL1       -0.2120
      9 C         142.9296  138.9134  160.1555 C.ar    1  UNL1        0.1318
     10 C         143.5752  140.0989  159.5014 C.ar    1  UNL1        0.0491
     11 C         143.1900  141.3108  164.7581 C.ar    1  UNL1        0.0534
     12 C         144.4919  140.7893  164.2262 C.ar    1  UNL1        0.0045
     13 C         144.7496  140.7827  162.7484 C.ar    1  UNL1        0.0001
     14 C         143.7054  141.2976  161.8027 C.ar    1  UNL1        0.0001
     15 C         142.4035  141.8191  162.3347 C.ar    1  UNL1        0.0001
     16 C         142.1457  141.8257  163.8123 C.ar    1  UNL1        0.0045
     17 O         143.4067  142.4668  167.0747 O.2     1  UNL1       -0.2701
     18 C         142.9323  141.3174  166.2358 C.2     1  UNL1        0.2460
     19 N         142.2002  140.1746  166.8745 N.am    1  UNL1       -0.2936
     20 H         141.8888  139.4202  166.3238 H       1  UNL1        0.1500
     21 C         141.9424  140.1811  168.3522 C.3     1  UNL1        0.1941
     22 C         142.4211  139.0416  169.2021 C.3     1  UNL1        0.4154
     23 F         142.8998  137.9021  170.0519 F       1  UNL1       -0.1682
     24 F         143.1969  138.4996  168.0384 F       1  UNL1       -0.1682
     25 F         141.6453  139.5836  170.3658 F       1  UNL1       -0.1682
     26 C         142.4115  136.5225  157.0305 C.ar    1  UNL1        0.0741
     27 C         143.1545  135.2289  157.1870 C.ar    1  UNL1        0.1052
     28 N         142.7666  134.0368  156.3634 N.ar    1  UNL1       -0.2223
     29 C         141.6357  134.1383  155.3832 C.ar    1  UNL1        0.1989
     30 N         140.8927  135.4319  155.2266 N.ar    1  UNL1       -0.2223
     31 C         141.2806  136.6241  156.0502 C.ar    1  UNL1        0.1052
     32 N         142.6720  138.9200  161.6331 N.pl3   1  UNL1       -0.3131
     33 H         143.1463  139.5590  162.2126 H       1  UNL1        0.1485
     34 C         141.6916  137.9529  162.2279 C.3     1  UNL1        0.1348
     35 C         140.5983  138.4504  163.1263 C.ar    1  UNL1        0.0788
     36 C         140.4768  137.9200  164.5241 C.ar    1  UNL1        0.0165
     37 C         139.3835  138.4175  165.4227 C.ar    1  UNL1        0.0029
     38 C         138.4118  139.4454  164.9233 C.ar    1  UNL1        0.0207
     39 C         138.5334  139.9757  163.5254 C.ar    1  UNL1        0.0985
     40 N         139.6266  139.4782  162.6270 N.ar    1  UNL1       -0.2464
@<TRIPOS>BOND
     1    17    18    2
     2    18    19   am
     3    19    21    1
     4    21    22    1
     5    22    23    1
     6    22    24    1
     7    22    25    1
     8    18    11    1
     9    11    12   ar
    10    12    13   ar
    11    13    14   ar
    12    14     1    1
    13     1     2   ar
    14     2     3   ar
    15     3     4   ar
    16     4     5   ar
    17     5     6   ar
    18     6     7   ar
    19     7    26    1
    20    26    27   ar
    21    27    28   ar
    22    28    29   ar
    23    29    30   ar
    24    30    31   ar
    25     7     8   ar
    26     8     9   ar
    27     9    32    1
    28    32    34    1
    29    34    35    1
    30    35    36   ar
    31    36    37   ar
    32    37    38   ar
    33    38    39   ar
    34    39    40   ar
    35     9    10   ar
    36    14    15   ar
    37    15    16   ar
    38    16    11   ar
    39    10     1   ar
    40    10     5   ar
    41    31    26   ar
    42    40    35   ar
    43    19    20    1
    44    32    33    1
@<TRIPOS>MOLECULE
*****
 40 44 0 0 0
SMALL
GASTEIGER

@<TRIPOS>ATOM
      1 C         141.8598  143.9656  161.9761 C.ar    1  UNL1        0.0041
      2 C         140.7672  144.9625  161.7264 C.ar    1  UNL1        0.0002
      3 C         140.5274  145.4807  160.3394 C.ar    1  UNL1        0.0015
      4 C         141.3803  145.0021  159.2020 C.ar    1  UNL1        0.0192
      5 C         142.4729  144.0052  159.4517 C.ar    1  UNL1        0.0856
      6 N         143.3257  143.5266  158.3143 N.ar    1  UNL1       -0.2264
      7 C         144.4183  142.5297  158.5640 C.ar    1  UNL1        0.1666
      8 N         144.6581  142.0114  159.9511 N.ar    1  UNL1       -0.2120
      9 C         143.8053  142.4900  161.0884 C.ar    1  UNL1        0.1318
     10 C         142.7126  143.4870  160.8387 C.ar    1  UNL1        0.0491
     11 C         142.5791  142.4107  166.1372 C.ar    1  UNL1        0.0534
     12 C         143.4870  143.4558  165.5597 C.ar    1  UNL1        0.0045
     13 C         143.2472  143.9741  164.1726 C.ar    1  UNL1        0.0001
     14 C         142.0996  143.4473  163.3631 C.ar    1  UNL1        0.0001
     15 C         141.1917  142.4022  163.9406 C.ar    1  UNL1        0.0001
     16 C         141.4314  141.8839  165.3276 C.ar    1  UNL1        0.0045
     17 O         143.6635  142.6782  168.4830 O.2     1  UNL1       -0.2701
     18 C         142.8189  141.8924  167.5242 C.2     1  UNL1        0.2460
     19 N         142.2140  140.5883  167.9525 N.am    1  UNL1       -0.2936
     20 H         141.6597  140.0726  167.3232 H       1  UNL1        0.1500
     21 C         142.4538  140.0699  169.3396 C.3     1  UNL1        0.1941
     22 C         141.3456  140.0912  170.3502 C.3     1  UNL1        0.4154
     23 F         140.2374  140.1126  171.3608 F       1  UNL1       -0.1682
     24 F         142.3123  140.5519  171.4005 F       1  UNL1       -0.1682
     25 F         140.3789  139.6306  169.2998 F       1  UNL1       -0.1682
     26 C         145.2711  142.0510  157.4267 C.ar    1  UNL1        0.0741
     27 C         144.7896  140.9369  156.5453 C.ar    1  UNL1        0.1052
     28 N         145.6425  140.4582  155.4080 N.ar    1  UNL1       -0.2223
     29 C         146.9768  141.0937  155.1520 C.ar    1  UNL1        0.1989
     30 N         147.4584  142.2079  156.0333 N.ar    1  UNL1       -0.2223
     31 C         146.6055  142.6866  157.1706 C.ar    1  UNL1        0.1052
     32 N         144.0450  141.9718  162.4755 N.pl3   1  UNL1       -0.3131
     33 H         143.9279  142.5674  163.2506 H       1  UNL1        0.1485
     34 C         144.4631  140.5460  162.6816 C.3     1  UNL1        0.1348
     35 C         143.5476  139.5905  163.3879 C.ar    1  UNL1        0.0788
     36 C         143.8333  139.1862  164.8038 C.ar    1  UNL1        0.0165
     37 C         142.9178  138.2307  165.5102 C.ar    1  UNL1        0.0029
     38 C         141.7166  137.6796  164.8006 C.ar    1  UNL1        0.0207
     39 C         141.4310  138.0840  163.3846 C.ar    1  UNL1        0.0985
     40 N         142.3465  139.0394  162.6783 N.ar    1  UNL1       -0.2464
@<TRIPOS>BOND
     1    17    18    2
     2    18    19   am
     3    19    21    1
     4    21    22    1
     5    22    23    1
     6    22    24    1
     7    22    25    1
     8    18    11    1
     9    11    12   ar
    10    12    13   ar
    11    13    14   ar
    12    14     1    1
    13     1     2   ar
    14     2     3   ar
    15     3     4   ar
    16     4     5   ar
    17     5     6   ar
    18     6     7   ar
    19     7    26    1
    20    26    27   ar
    21    27    28   ar
    22    28    29   ar
    23    29    30   ar
    24    30    31   ar
    25     7     8   ar
    26     8     9   ar
    27     9    32    1
    28    32    34    1
    29    34    35    1
    30    35    36   ar
    31    36    37   ar
    32    37    38   ar
    33    38    39   ar
    34    39    40   ar
    35     9    10   ar
    36    14    15   ar
    37    15    16   ar
    38    16    11   ar
    39    10     1   ar
    40    10     5   ar
    41    31    26   ar
    42    40    35   ar
    43    19    20    1
    44    32    33    1
@<TRIPOS>MOLECULE
*****
 40 44 0 0 0
SMALL
GASTEIGER

@<TRIPOS>ATOM
      1 C         140.8784  139.1980  162.9917 C.ar    1  UNL1        0.0041
      2 C         139.8095  138.1476  162.9284 C.ar    1  UNL1        0.0002
      3 C         139.0063  137.8202  164.1522 C.ar    1  UNL1        0.0015
      4 C         139.2722  138.5432  165.4393 C.ar    1  UNL1        0.0192
      5 C         140.3412  139.5935  165.5026 C.ar    1  UNL1        0.0856
      6 N         140.6070  140.3165  166.7897 N.ar    1  UNL1       -0.2264
      7 C         141.6760  141.3668  166.8530 C.ar    1  UNL1        0.1666
      8 N         142.4792  141.6943  165.6292 N.ar    1  UNL1       -0.2120
      9 C         142.2133  140.9713  164.3420 C.ar    1  UNL1        0.1318
     10 C         141.1443  139.9209  164.2788 C.ar    1  UNL1        0.0491
     11 C         143.2879  140.1803  159.3201 C.ar    1  UNL1        0.0534
     12 C         143.7800  139.1422  160.2846 C.ar    1  UNL1        0.0045
     13 C         142.9768  138.8148  161.5085 C.ar    1  UNL1        0.0001
     14 C         141.6816  139.5254  161.7678 C.ar    1  UNL1        0.0001
     15 C         141.1895  140.5635  160.8034 C.ar    1  UNL1        0.0001
     16 C         141.9926  140.8909  159.5796 C.ar    1  UNL1        0.0045
     17 O         144.2608  139.4828  157.0143 O.2     1  UNL1       -0.2701
     18 C         144.0910  140.5077  158.0963 C.2     1  UNL1        0.2460
     19 N         144.7242  141.8601  157.9546 N.am    1  UNL1       -0.2936
     20 H         144.6127  142.5327  158.6647 H       1  UNL1        0.1500
     21 C         145.5274  142.1876  156.7307 C.3     1  UNL1        0.1941
     22 C         147.0118  142.3753  156.8358 C.3     1  UNL1        0.4154
     23 F         148.4963  142.5629  156.9410 F       1  UNL1       -0.1682
     24 F         146.8264  143.1194  158.1249 F       1  UNL1       -0.1682
     25 F         147.1972  141.6311  155.5468 F       1  UNL1       -0.1682
     26 C         141.9418  142.0898  168.1401 C.ar    1  UNL1        0.0741
     27 C         140.8057  142.7004  168.9059 C.ar    1  UNL1        0.1052
     28 N         141.0716  143.4233  170.1930 N.ar    1  UNL1       -0.2223
     29 C         142.4735  143.5357  170.7144 C.ar    1  UNL1        0.1989
     30 N         143.6097  142.9251  169.9486 N.ar    1  UNL1       -0.2223
     31 C         143.3439  142.2022  168.6615 C.ar    1  UNL1        0.1052
     32 N         143.0164  141.2987  163.1182 N.pl3   1  UNL1       -0.3131
     33 H         143.2955  140.5801  162.5058 H       1  UNL1        0.1485
     34 C         143.3944  142.7209  162.8275 C.3     1  UNL1        0.1348
     35 C         142.3687  143.6748  162.2909 C.ar    1  UNL1        0.0788
     36 C         141.3053  144.2204  163.1972 C.ar    1  UNL1        0.0165
     37 C         140.2796  145.1744  162.6606 C.ar    1  UNL1        0.0029
     38 C         140.3173  145.5828  161.2178 C.ar    1  UNL1        0.0207
     39 C         141.3808  145.0371  160.3114 C.ar    1  UNL1        0.0985
     40 N         142.4065  144.0832  160.8480 N.ar    1  UNL1       -0.2464
@<TRIPOS>BOND
     1    17    18    2
     2    18    19   am
     3    19    21    1
     4    21    22    1
     5    22    23    1
     6    22    24    1
     7    22    25    1
     8    18    11    1
     9    11    12   ar
    10    12    13   ar
    11    13    14   ar
    12    14     1    1
    13     1     2   ar
    14     2     3   ar
    15     3     4   ar
    16     4     5   ar
    17     5     6   ar
    18     6     7   ar
    19     7    26    1
    20    26    27   ar
    21    27    28   ar
    22    28    29   ar
    23    29    30   ar
    24    30    31   ar
    25     7     8   ar
    26     8     9   ar
    27     9    32    1
    28    32    34    1
    29    34    35    1
    30    35    36   ar
    31    36    37   ar
    32    37    38   ar
    33    38    39   ar
    34    39    40   ar
    35     9    10   ar
    36    14    15   ar
    37    15    16   ar
    38    16    11   ar
    39    10     1   ar
    40    10     5   ar
    41    31    26   ar
    42    40    35   ar
    43    19    20    1
    44    32    33    1
@<TRIPOS>MOLECULE
*****
 40 44 0 0 0
SMALL
GASTEIGER

@<TRIPOS>ATOM
      1 C         140.1129  143.7224  160.8542 C.ar    1  UNL1        0.0041
      2 C         140.8606  144.9822  160.5321 C.ar    1  UNL1        0.0002
      3 C         140.8947  145.4945  159.1228 C.ar    1  UNL1        0.0015
      4 C         140.1811  144.7470  158.0355 C.ar    1  UNL1        0.0192
      5 C         139.4334  143.4873  158.3577 C.ar    1  UNL1        0.0856
      6 N         138.7198  142.7398  157.2704 N.ar    1  UNL1       -0.2264
      7 C         137.9721  141.4800  157.5925 C.ar    1  UNL1        0.1666
      8 N         137.9379  140.9676  159.0020 N.ar    1  UNL1       -0.2120
      9 C         138.6515  141.7151  160.0892 C.ar    1  UNL1        0.1318
     10 C         139.3993  142.9749  159.7670 C.ar    1  UNL1        0.0491
     11 C         140.0105  142.1853  165.0824 C.ar    1  UNL1        0.0534
     12 C         141.0904  141.7316  164.1454 C.ar    1  UNL1        0.0045
     13 C         141.1245  142.2440  162.7360 C.ar    1  UNL1        0.0001
     14 C         140.0788  143.2100  162.2636 C.ar    1  UNL1        0.0001
     15 C         138.9988  143.6636  163.2006 C.ar    1  UNL1        0.0001
     16 C         138.9647  143.1513  164.6100 C.ar    1  UNL1        0.0045
     17 O         139.1824  140.4444  166.8241 O.2     1  UNL1       -0.2701
     18 C         139.9763  141.6729  166.4917 C.2     1  UNL1        0.2460
     19 N         140.7360  142.3891  167.5687 N.am    1  UNL1       -0.2936
     20 H         141.2571  143.1954  167.3505 H       1  UNL1        0.1500
     21 C         140.7019  141.8767  168.9781 C.3     1  UNL1        0.1941
     22 C         139.9724  142.6469  170.0386 C.3     1  UNL1        0.4154
     23 F         139.2429  143.4170  171.0991 F       1  UNL1       -0.1682
     24 F         138.9745  141.5336  170.1607 F       1  UNL1       -0.1682
     25 F         140.9702  143.7601  169.9166 F       1  UNL1       -0.1682
     26 C         137.2584  140.7326  156.5053 C.ar    1  UNL1        0.0741
     27 C         138.0316  139.8538  155.5673 C.ar    1  UNL1        0.1052
     28 N         137.3180  139.1064  154.4800 N.ar    1  UNL1       -0.2223
     29 C         135.8312  139.2377  154.3309 C.ar    1  UNL1        0.1989
     30 N         135.0580  140.1165  155.2689 N.ar    1  UNL1       -0.2223
     31 C         135.7716  140.8639  156.3562 C.ar    1  UNL1        0.1052
     32 N         138.6174  141.2028  161.4985 N.pl3   1  UNL1       -0.3131
     33 H         138.8167  141.8095  162.2478 H       1  UNL1        0.1485
     34 C         138.2797  139.7660  161.7663 C.3     1  UNL1        0.1348
     35 C         139.2225  138.9088  162.5577 C.ar    1  UNL1        0.0788
     36 C         138.8749  138.5099  163.9612 C.ar    1  UNL1        0.0165
     37 C         139.8177  137.6527  164.7527 C.ar    1  UNL1        0.0029
     38 C         141.1081  137.1944  164.1404 C.ar    1  UNL1        0.0207
     39 C         141.4557  137.5933  162.7368 C.ar    1  UNL1        0.0985
     40 N         140.5129  138.4505  161.9454 N.ar    1  UNL1       -0.2464
@<TRIPOS>BOND
     1    17    18    2
     2    18    19   am
     3    19    21    1
     4    21    22    1
     5    22    23    1
     6    22    24    1
     7    22    25    1
     8    18    11    1
     9    11    12   ar
    10    12    13   ar
    11    13    14   ar
    12    14     1    1
    13     1     2   ar
    14     2     3   ar
    15     3     4   ar
    16     4     5   ar
    17     5     6   ar
    18     6     7   ar
    19     7    26    1
    20    26    27   ar
    21    27    28   ar
    22    28    29   ar
    23    29    30   ar
    24    30    31   ar
    25     7     8   ar
    26     8     9   ar
    27     9    32    1
    28    32    34    1
    29    34    35    1
    30    35    36   ar
    31    36    37   ar
    32    37    38   ar
    33    38    39   ar
    34    39    40   ar
    35     9    10   ar
    36    14    15   ar
    37    15    16   ar
    38    16    11   ar
    39    10     1   ar
    40    10     5   ar
    41    31    26   ar
    42    40    35   ar
    43    19    20    1
    44    32    33    1
@<TRIPOS>MOLECULE
*****
 40 44 0 0 0
SMALL
GASTEIGER

@<TRIPOS>ATOM
      1 C         140.2320  139.9867  166.9578 C.ar    1  UNL1        0.0041
      2 C         138.9421  139.4360  167.4895 C.ar    1  UNL1        0.0002
      3 C         138.0436  138.6343  166.5951 C.ar    1  UNL1        0.0015
      4 C         138.4351  138.3834  165.1689 C.ar    1  UNL1        0.0192
      5 C         139.7250  138.9341  164.6372 C.ar    1  UNL1        0.0856
      6 N         140.1164  138.6832  163.2111 N.ar    1  UNL1       -0.2264
      7 C         141.4063  139.2340  162.6794 C.ar    1  UNL1        0.1666
      8 N         142.3049  140.0357  163.5738 N.ar    1  UNL1       -0.2120
      9 C         141.9134  140.2866  164.9999 C.ar    1  UNL1        0.1318
     10 C         140.6235  139.7358  165.5316 C.ar    1  UNL1        0.0491
     11 C         142.9277  142.3918  169.6410 C.ar    1  UNL1        0.0534
     12 C         141.7629  143.0503  168.9631 C.ar    1  UNL1        0.0045
     13 C         140.8643  142.2486  168.0687 C.ar    1  UNL1        0.0001
     14 C         141.1306  140.7884  167.8522 C.ar    1  UNL1        0.0001
     15 C         142.2954  140.1299  168.5301 C.ar    1  UNL1        0.0001
     16 C         143.1939  140.9315  169.4245 C.ar    1  UNL1        0.0045
     17 O         143.2354  144.1062  171.5687 O.2     1  UNL1       -0.2701
     18 C         143.8262  143.1934  170.5354 C.2     1  UNL1        0.2460
     19 N         145.3156  143.0822  170.3965 N.am    1  UNL1       -0.2936
     20 H         145.7034  142.4831  169.7183 H       1  UNL1        0.1500
     21 C         146.2142  143.8839  171.2909 C.3     1  UNL1        0.1941
     22 C         146.2554  145.3782  171.1680 C.3     1  UNL1        0.4154
     23 F         146.2965  146.8726  171.0451 F       1  UNL1       -0.1682
     24 F         145.5799  145.5065  172.5011 F       1  UNL1       -0.1682
     25 F         146.9309  145.2500  169.8349 F       1  UNL1       -0.1682
     26 C         141.7977  138.9831  161.2533 C.ar    1  UNL1        0.0741
     27 C         140.7474  138.6556  160.2338 C.ar    1  UNL1        0.1052
     28 N         141.1388  138.4047  158.8076 N.ar    1  UNL1       -0.2223
     29 C         142.5806  138.4813  158.4010 C.ar    1  UNL1        0.1989
     30 N         143.6310  138.8088  159.4206 N.ar    1  UNL1       -0.2223
     31 C         143.2396  139.0597  160.8467 C.ar    1  UNL1        0.1052
     32 N         142.8119  141.0883  165.8944 N.pl3   1  UNL1       -0.3131
     33 H         143.0224  140.7634  166.7996 H       1  UNL1        0.1485
     34 C         143.3897  142.3850  165.4096 C.3     1  UNL1        0.1348
     35 C         142.5881  143.2706  164.5024 C.ar    1  UNL1        0.0788
     36 C         143.1704  143.7336  163.1999 C.ar    1  UNL1        0.0165
     37 C         142.3688  144.6192  162.2926 C.ar    1  UNL1        0.0029
     38 C         140.9849  145.0419  162.6879 C.ar    1  UNL1        0.0207
     39 C         140.4026  144.5788  163.9904 C.ar    1  UNL1        0.0985
     40 N         141.2042  143.6932  164.8977 N.ar    1  UNL1       -0.2464
@<TRIPOS>BOND
     1    17    18    2
     2    18    19   am
     3    19    21    1
     4    21    22    1
     5    22    23    1
     6    22    24    1
     7    22    25    1
     8    18    11    1
     9    11    12   ar
    10    12    13   ar
    11    13    14   ar
    12    14     1    1
    13     1     2   ar
    14     2     3   ar
    15     3     4   ar
    16     4     5   ar
    17     5     6   ar
    18     6     7   ar
    19     7    26    1
    20    26    27   ar
    21    27    28   ar
    22    28    29   ar
    23    29    30   ar
    24    30    31   ar
    25     7     8   ar
    26     8     9   ar
    27     9    32    1
    28    32    34    1
    29    34    35    1
    30    35    36   ar
    31    36    37   ar
    32    37    38   ar
    33    38    39   ar
    34    39    40   ar
    35     9    10   ar
    36    14    15   ar
    37    15    16   ar
    38    16    11   ar
    39    10     1   ar
    40    10     5   ar
    41    31    26   ar
    42    40    35   ar
    43    19    20    1
    44    32    33    1
@<TRIPOS>MOLECULE
*****
 40 44 0 0 0
SMALL
GASTEIGER

@<TRIPOS>ATOM
      1 C         141.5785  143.9323  161.5148 C.ar    1  UNL1        0.0041
      2 C         140.4742  144.9045  161.2229 C.ar    1  UNL1        0.0002
      3 C         140.3025  145.4503  159.8364 C.ar    1  UNL1        0.0015
      4 C         141.2351  145.0239  158.7417 C.ar    1  UNL1        0.0192
      5 C         142.3395  144.0517  159.0335 C.ar    1  UNL1        0.0856
      6 N         143.2721  143.6253  157.9388 N.ar    1  UNL1       -0.2264
      7 C         144.3764  142.6530  158.2307 C.ar    1  UNL1        0.1666
      8 N         144.5481  142.1072  159.6173 N.ar    1  UNL1       -0.2120
      9 C         143.6155  142.5336  160.7120 C.ar    1  UNL1        0.1318
     10 C         142.5111  143.5059  160.4201 C.ar    1  UNL1        0.0491
     11 C         142.0938  142.2947  165.6745 C.ar    1  UNL1        0.0534
     12 C         141.0914  141.6780  164.7445 C.ar    1  UNL1        0.0045
     13 C         140.9197  142.2238  163.3579 C.ar    1  UNL1        0.0001
     14 C         141.7503  143.3864  162.9014 C.ar    1  UNL1        0.0001
     15 C         142.7526  144.0032  163.8314 C.ar    1  UNL1        0.0001
     16 C         142.9244  143.4574  165.2179 C.ar    1  UNL1        0.0045
     17 O         141.5081  140.5255  167.4847 O.2     1  UNL1       -0.2701
     18 C         142.2655  141.7489  167.0611 C.2     1  UNL1        0.2460
     19 N         143.1947  142.4266  168.0240 N.am    1  UNL1       -0.2936
     20 H         143.6918  143.2296  167.7460 H       1  UNL1        0.1500
     21 C         143.3665  141.8808  169.4107 C.3     1  UNL1        0.1941
     22 C         142.2825  142.0686  170.4302 C.3     1  UNL1        0.4154
     23 F         141.1984  142.2563  171.4498 F       1  UNL1       -0.1682
     24 F         142.3302  140.6040  170.7506 F       1  UNL1       -0.1682
     25 F         142.2347  143.5331  170.1098 F       1  UNL1       -0.1682
     26 C         145.3090  142.2266  157.1359 C.ar    1  UNL1        0.0741
     27 C         146.7461  142.6552  157.1657 C.ar    1  UNL1        0.1052
     28 N         147.6788  142.2288  156.0710 N.ar    1  UNL1       -0.2223
     29 C         147.1743  141.3738  154.9465 C.ar    1  UNL1        0.1989
     30 N         145.7371  140.9452  154.9168 N.ar    1  UNL1       -0.2223
     31 C         144.8044  141.3716  156.0115 C.ar    1  UNL1        0.1052
     32 N         143.7872  141.9878  162.0985 N.pl3   1  UNL1       -0.3131
     33 H         143.5354  142.5346  162.8775 H       1  UNL1        0.1485
     34 C         144.3426  140.6087  162.2983 C.3     1  UNL1        0.1348
     35 C         143.7221  139.6893  163.3080 C.ar    1  UNL1        0.0788
     36 C         144.3480  139.5302  164.6618 C.ar    1  UNL1        0.0165
     37 C         143.7275  138.6107  165.6716 C.ar    1  UNL1        0.0029
     38 C         142.4811  137.8503  165.3274 C.ar    1  UNL1        0.0207
     39 C         141.8553  138.0095  163.9735 C.ar    1  UNL1        0.0985
     40 N         142.4758  138.9289  162.9638 N.ar    1  UNL1       -0.2464
@<TRIPOS>BOND
     1    17    18    2
     2    18    19   am
     3    19    21    1
     4    21    22    1
     5    22    23    1
     6    22    24    1
     7    22    25    1
     8    18    11    1
     9    11    12   ar
    10    12    13   ar
    11    13    14   ar
    12    14     1    1
    13     1     2   ar
    14     2     3   ar
    15     3     4   ar
    16     4     5   ar
    17     5     6   ar
    18     6     7   ar
    19     7    26    1
    20    26    27   ar
    21    27    28   ar
    22    28    29   ar
    23    29    30   ar
    24    30    31   ar
    25     7     8   ar
    26     8     9   ar
    27     9    32    1
    28    32    34    1
    29    34    35    1
    30    35    36   ar
    31    36    37   ar
    32    37    38   ar
    33    38    39   ar
    34    39    40   ar
    35     9    10   ar
    36    14    15   ar
    37    15    16   ar
    38    16    11   ar
    39    10     1   ar
    40    10     5   ar
    41    31    26   ar
    42    40    35   ar
    43    19    20    1
    44    32    33    1
