@<TRIPOS>MOLECULE
*****
 39 42 0 0 0
SMALL
GASTEIGER

@<TRIPOS>ATOM
      1 S         139.9011  142.3169  159.6986 S.O2    1  UNL1        0.0638
      2 O         138.7677  143.2889  159.5542 O.2     1  UNL1       -0.1528
      3 O         141.0344  141.3450  159.8431 O.2     1  UNL1       -0.1528
      4 C         138.2655  141.0014  163.6792 C.ar    1  UNL1        0.1391
      5 C         137.6990  140.4345  162.4111 C.ar    1  UNL1        0.0383
      6 C         138.2442  140.8730  161.0843 C.ar    1  UNL1        0.0230
      7 C         139.3559  141.8784  161.0255 C.ar    1  UNL1        0.1224
      8 C         139.9223  142.4453  162.2934 C.ar    1  UNL1        0.0230
      9 C         139.3771  142.0068  163.6203 C.ar    1  UNL1        0.0383
     10 O         137.7203  140.5629  165.0060 O.3     1  UNL1       -0.4706
     11 C         138.2847  139.3503  165.6850 C.3     1  UNL1        0.2321
     12 C         140.2682  140.3697  170.3783 C.3     1  UNL1        0.0521
     13 C         140.4632  139.9929  168.9394 C.ar    1  UNL1        0.0591
     14 C         139.2765  139.8600  168.0316 C.ar    1  UNL1        0.0141
     15 C         139.4714  139.4832  166.5929 C.ar    1  UNL1        0.0238
     16 C         140.8529  139.2393  166.0619 C.ar    1  UNL1        0.0172
     17 C         141.0478  138.8625  164.6232 C.ar    1  UNL1        0.0013
     18 C         142.4293  138.6186  164.0923 C.ar    1  UNL1        0.0001
     19 C         143.6159  138.7515  165.0001 C.ar    1  UNL1        0.0015
     20 C         143.4211  139.1283  166.4389 C.ar    1  UNL1        0.0191
     21 C         142.0396  139.3722  166.9697 C.ar    1  UNL1        0.0807
     22 N         141.8447  139.7490  168.4086 N.ar    1  UNL1       -0.2497
     23 N         140.4462  142.7554  158.3718 N.3     1  UNL1       -0.1451
     24 C         140.9363  141.7348  157.3880 C.3     1  UNL1        0.1155
     25 C         140.5013  144.2147  158.0288 C.3     1  UNL1        0.1721
     26 C         139.4279  144.0136  157.0006 C.3     1  UNL1        0.1203
     27 N         139.4830  145.4728  156.6577 N.am    1  UNL1       -0.2757
     28 C         138.7628  146.3624  155.6881 C.2     1  UNL1        0.2253
     29 O         137.7117  145.7904  154.7837 O.2     1  UNL1       -0.2749
     30 C         140.5564  145.6739  157.6859 C.3     1  UNL1        0.1203
     31 C         141.5747  144.4158  159.0570 C.2     1  UNL1        0.2620
     32 O         142.9782  143.9686  158.7735 O.2     1  UNL1       -0.2715
     33 N         141.2448  145.0641  160.3689 N.am    1  UNL1       -0.1958
     34 O         142.3182  145.2652  161.3971 O.3     1  UNL1       -0.2951
     35 H         140.3236  145.3576  160.5550 H       1  UNL1        0.1823
     36 H         143.1597  144.9230  161.0572 H       1  UNL1        0.2414
     37 C         139.0939  147.8240  155.6230 C.3     1  UNL1        0.0767
     38 C         139.9367  148.3527  154.5005 C.3     1  UNL1        0.0096
     39 C         138.5822  148.7568  156.6804 C.3     1  UNL1        0.0096
@<TRIPOS>BOND
     1    12    13    1
     2    13    14   ar
     3    14    15   ar
     4    15    11    1
     5    11    10    1
     6    10     4    1
     7     4     5   ar
     8     5     6   ar
     9     6     7   ar
    10     7     1    1
    11     1     2    2
    12     1     3    2
    13     1    23    1
    14    23    24    1
    15    23    25    1
    16    25    31    1
    17    31    32    2
    18    31    33   am
    19    33    34    1
    20    25    26    1
    21    26    27    1
    22    27    28   am
    23    28    29    2
    24    28    37    1
    25    37    38    1
    26    37    39    1
    27    27    30    1
    28     7     8   ar
    29     8     9   ar
    30    15    16   ar
    31    16    17   ar
    32    17    18   ar
    33    18    19   ar
    34    19    20   ar
    35    20    21   ar
    36    21    22   ar
    37    22    13   ar
    38     9     4   ar
    39    21    16   ar
    40    30    25    1
    41    33    35    1
    42    34    36    1
@<TRIPOS>MOLECULE
*****
 39 42 0 0 0
SMALL
GASTEIGER

@<TRIPOS>ATOM
      1 S         139.9961  142.3970  159.7810 S.O2    1  UNL1        0.0638
      2 O         138.8144  143.3177  159.7044 O.2     1  UNL1       -0.1528
      3 O         141.1779  141.4764  159.8576 O.2     1  UNL1       -0.1528
      4 C         138.7654  141.1625  163.9296 C.ar    1  UNL1        0.1391
      5 C         140.1572  141.6622  163.6777 C.ar    1  UNL1        0.0383
      6 C         140.5674  142.0737  162.2948 C.ar    1  UNL1        0.0230
      7 C         139.5859  141.9855  161.1639 C.ar    1  UNL1        0.1224
      8 C         138.1942  141.4858  161.4159 C.ar    1  UNL1        0.0230
      9 C         137.7840  141.0743  162.7987 C.ar    1  UNL1        0.0383
     10 O         138.3552  140.7509  165.3125 O.3     1  UNL1       -0.4706
     11 C         138.8768  139.4734  165.9006 C.3     1  UNL1        0.2321
     12 C         143.9936  138.6111  165.6284 C.3     1  UNL1        0.0521
     13 C         142.7844  139.0139  166.4193 C.ar    1  UNL1        0.0591
     14 C         141.4352  139.0423  165.7645 C.ar    1  UNL1        0.0141
     15 C         140.2260  139.4451  166.5554 C.ar    1  UNL1        0.0238
     16 C         140.3660  139.8195  168.0012 C.ar    1  UNL1        0.0172
     17 C         139.1568  140.2223  168.7921 C.ar    1  UNL1        0.0013
     18 C         139.2968  140.5968  170.2378 C.ar    1  UNL1        0.0001
     19 C         140.6460  140.5684  170.8926 C.ar    1  UNL1        0.0015
     20 C         141.8552  140.1656  170.1017 C.ar    1  UNL1        0.0191
     21 C         141.7152  139.7912  168.6560 C.ar    1  UNL1        0.0807
     22 N         142.9244  139.3884  167.8651 N.ar    1  UNL1       -0.2497
     23 N         140.4064  142.8086  158.3981 N.3     1  UNL1       -0.1451
     24 C         140.7485  141.7657  157.3758 C.3     1  UNL1        0.1155
     25 C         140.4745  144.2631  158.0377 C.3     1  UNL1        0.1721
     26 C         139.3987  144.0594  157.0124 C.3     1  UNL1        0.1203
     27 N         139.4668  145.5138  156.6520 N.am    1  UNL1       -0.2757
     28 C         138.7543  146.3982  155.6721 C.2     1  UNL1        0.2253
     29 O         137.6975  145.8250  154.7750 O.2     1  UNL1       -0.2749
     30 C         140.5426  145.7175  157.6772 C.3     1  UNL1        0.1203
     31 C         141.5502  144.4668  159.0629 C.2     1  UNL1        0.2620
     32 O         142.9547  144.0264  158.7740 O.2     1  UNL1       -0.2715
     33 N         141.2215  145.1109  160.3772 N.am    1  UNL1       -0.1958
     34 O         142.2973  145.3145  161.4024 O.3     1  UNL1       -0.2951
     35 H         140.2997  145.3999  160.5668 H       1  UNL1        0.1823
     36 H         143.1393  144.9767  161.0591 H       1  UNL1        0.2414
     37 C         139.0985  147.8558  155.5893 C.3     1  UNL1        0.0767
     38 C         138.5981  148.8053  156.6372 C.3     1  UNL1        0.0096
     39 C         139.9432  148.3640  154.4587 C.3     1  UNL1        0.0096
@<TRIPOS>BOND
     1    12    13    1
     2    13    14   ar
     3    14    15   ar
     4    15    11    1
     5    11    10    1
     6    10     4    1
     7     4     5   ar
     8     5     6   ar
     9     6     7   ar
    10     7     1    1
    11     1     2    2
    12     1     3    2
    13     1    23    1
    14    23    24    1
    15    23    25    1
    16    25    31    1
    17    31    32    2
    18    31    33   am
    19    33    34    1
    20    25    26    1
    21    26    27    1
    22    27    28   am
    23    28    29    2
    24    28    37    1
    25    37    38    1
    26    37    39    1
    27    27    30    1
    28     7     8   ar
    29     8     9   ar
    30    15    16   ar
    31    16    17   ar
    32    17    18   ar
    33    18    19   ar
    34    19    20   ar
    35    20    21   ar
    36    21    22   ar
    37    22    13   ar
    38     9     4   ar
    39    21    16   ar
    40    30    25    1
    41    33    35    1
    42    34    36    1
@<TRIPOS>MOLECULE
*****
 39 42 0 0 0
SMALL
GASTEIGER

@<TRIPOS>ATOM
      1 S         141.2747  143.5050  161.3837 S.O2    1  UNL1        0.0638
      2 O         142.1026  143.1248  160.1921 O.2     1  UNL1       -0.1528
      3 O         140.4469  143.8852  162.5754 O.2     1  UNL1       -0.1528
      4 C         143.6914  140.7114  163.9539 C.ar    1  UNL1        0.1391
      5 C         143.2415  142.0337  164.5010 C.ar    1  UNL1        0.0383
      6 C         142.4359  142.9649  163.6443 C.ar    1  UNL1        0.0230
      7 C         142.0803  142.5738  162.2405 C.ar    1  UNL1        0.1224
      8 C         142.5302  141.2516  161.6934 C.ar    1  UNL1        0.0230
      9 C         143.3358  140.3204  162.5501 C.ar    1  UNL1        0.0383
     10 O         144.4970  139.7802  164.8106 O.3     1  UNL1       -0.4706
     11 C         143.8040  138.8108  165.7216 C.3     1  UNL1        0.2321
     12 C         140.4830  140.8551  169.1556 C.3     1  UNL1        0.0521
     13 C         140.7364  140.0982  167.8855 C.ar    1  UNL1        0.0591
     14 C         142.1435  139.8329  167.4386 C.ar    1  UNL1        0.0141
     15 C         142.3970  139.0761  166.1685 C.ar    1  UNL1        0.0238
     16 C         141.2433  138.5846  165.3454 C.ar    1  UNL1        0.0172
     17 C         141.4968  137.8278  164.0753 C.ar    1  UNL1        0.0013
     18 C         140.3431  137.3363  163.2522 C.ar    1  UNL1        0.0001
     19 C         138.9360  137.6016  163.6992 C.ar    1  UNL1        0.0015
     20 C         138.6826  138.3584  164.9692 C.ar    1  UNL1        0.0191
     21 C         139.8362  138.8499  165.7923 C.ar    1  UNL1        0.0807
     22 N         139.5828  139.6068  167.0624 N.ar    1  UNL1       -0.2497
     23 N         140.4692  144.4362  160.5270 N.3     1  UNL1       -0.1451
     24 C         140.1739  145.8274  161.0037 C.3     1  UNL1        0.1155
     25 C         139.9589  143.9761  159.1936 C.3     1  UNL1        0.1721
     26 C         139.3285  142.7820  159.8468 C.3     1  UNL1        0.1203
     27 N         138.8183  142.3220  158.5134 N.am    1  UNL1       -0.2757
     28 C         138.0117  141.1523  158.0325 C.2     1  UNL1        0.2253
     29 O         137.5349  140.1179  159.0086 O.2     1  UNL1       -0.2749
     30 C         139.4487  143.5161  157.8602 C.3     1  UNL1        0.1203
     31 C         140.5893  145.1702  158.5404 C.2     1  UNL1        0.2620
     32 O         139.7282  146.2859  158.0267 O.2     1  UNL1       -0.2715
     33 N         142.0807  145.2487  158.4009 N.am    1  UNL1       -0.1958
     34 O         142.7111  146.4428  157.7477 O.3     1  UNL1       -0.2951
     35 H         142.6459  144.5164  158.7380 H       1  UNL1        0.1823
     36 H         142.0189  147.0653  157.4752 H       1  UNL1        0.2414
     37 C         137.6820  141.0170  156.5754 C.3     1  UNL1        0.0767
     38 C         136.4250  141.6281  156.0311 C.3     1  UNL1        0.0096
     39 C         138.6094  140.2707  155.6627 C.3     1  UNL1        0.0096
@<TRIPOS>BOND
     1    12    13    1
     2    13    14   ar
     3    14    15   ar
     4    15    11    1
     5    11    10    1
     6    10     4    1
     7     4     5   ar
     8     5     6   ar
     9     6     7   ar
    10     7     1    1
    11     1     2    2
    12     1     3    2
    13     1    23    1
    14    23    24    1
    15    23    25    1
    16    25    31    1
    17    31    32    2
    18    31    33   am
    19    33    34    1
    20    25    26    1
    21    26    27    1
    22    27    28   am
    23    28    29    2
    24    28    37    1
    25    37    38    1
    26    37    39    1
    27    27    30    1
    28     7     8   ar
    29     8     9   ar
    30    15    16   ar
    31    16    17   ar
    32    17    18   ar
    33    18    19   ar
    34    19    20   ar
    35    20    21   ar
    36    21    22   ar
    37    22    13   ar
    38     9     4   ar
    39    21    16   ar
    40    30    25    1
    41    33    35    1
    42    34    36    1
@<TRIPOS>MOLECULE
*****
 39 42 0 0 0
SMALL
GASTEIGER

@<TRIPOS>ATOM
      1 S         140.6511  139.5576  159.5907 S.O2    1  UNL1        0.0638
      2 O         139.1802  139.2648  159.5651 O.2     1  UNL1       -0.1528
      3 O         142.1220  139.8505  159.6162 O.2     1  UNL1       -0.1528
      4 C         141.2913  136.6354  156.2290 C.ar    1  UNL1        0.1391
      5 C         142.4221  136.9727  157.1551 C.ar    1  UNL1        0.0383
      6 C         142.2087  137.9468  158.2757 C.ar    1  UNL1        0.0230
      7 C         140.8645  138.5836  158.4701 C.ar    1  UNL1        0.1224
      8 C         139.7337  138.2462  157.5441 C.ar    1  UNL1        0.0230
      9 C         139.9472  137.2721  156.4235 C.ar    1  UNL1        0.0383
     10 O         141.5047  135.6613  155.1085 O.3     1  UNL1       -0.4706
     11 C         142.6426  134.6859  155.1691 C.3     1  UNL1        0.2321
     12 C         139.8379  130.4628  154.0293 C.3     1  UNL1        0.0521
     13 C         140.9648  131.1107  154.7779 C.ar    1  UNL1        0.0591
     14 C         141.2403  132.5743  154.5993 C.ar    1  UNL1        0.0141
     15 C         142.3671  133.2223  155.3478 C.ar    1  UNL1        0.0238
     16 C         143.2186  132.4066  156.2751 C.ar    1  UNL1        0.0172
     17 C         144.3454  133.0545  157.0236 C.ar    1  UNL1        0.0013
     18 C         145.1968  132.2388  157.9508 C.ar    1  UNL1        0.0001
     19 C         144.9213  130.7752  158.1295 C.ar    1  UNL1        0.0015
     20 C         143.7945  130.1273  157.3810 C.ar    1  UNL1        0.0191
     21 C         142.9431  130.9430  156.4538 C.ar    1  UNL1        0.0807
     22 N         141.8162  130.2950  155.7052 N.ar    1  UNL1       -0.2497
     23 N         140.4377  140.5317  160.7112 N.3     1  UNL1       -0.1451
     24 C         139.2358  141.4291  160.7062 C.3     1  UNL1        0.1155
     25 C         141.4262  140.6084  161.8368 C.3     1  UNL1        0.1721
     26 C         141.8972  141.9402  161.3325 C.3     1  UNL1        0.1203
     27 N         142.8857  142.0168  162.4581 N.am    1  UNL1       -0.2757
     28 C         143.9178  143.0128  162.8974 C.2     1  UNL1        0.2253
     29 O         144.1168  144.2795  162.1189 O.2     1  UNL1       -0.2749
     30 C         142.4147  140.6850  162.9624 C.3     1  UNL1        0.1203
     31 C         140.9552  139.2766  162.3411 C.2     1  UNL1        0.2620
     32 O         139.6031  139.1513  162.9783 O.2     1  UNL1       -0.2715
     33 N         141.8364  138.0699  162.2082 N.am    1  UNL1       -0.1958
     34 O         141.3654  136.7381  162.7125 O.3     1  UNL1       -0.2951
     35 H         142.7239  138.1521  161.7900 H       1  UNL1        0.1823
     36 H         140.4778  136.8316  163.0923 H       1  UNL1        0.2414
     37 C         144.7507  142.7421  164.1151 C.3     1  UNL1        0.0767
     38 C         145.7987  141.6695  164.0836 C.3     1  UNL1        0.0096
     39 C         144.5356  143.5439  165.3645 C.3     1  UNL1        0.0096
@<TRIPOS>BOND
     1    12    13    1
     2    13    14   ar
     3    14    15   ar
     4    15    11    1
     5    11    10    1
     6    10     4    1
     7     4     5   ar
     8     5     6   ar
     9     6     7   ar
    10     7     1    1
    11     1     2    2
    12     1     3    2
    13     1    23    1
    14    23    24    1
    15    23    25    1
    16    25    31    1
    17    31    32    2
    18    31    33   am
    19    33    34    1
    20    25    26    1
    21    26    27    1
    22    27    28   am
    23    28    29    2
    24    28    37    1
    25    37    38    1
    26    37    39    1
    27    27    30    1
    28     7     8   ar
    29     8     9   ar
    30    15    16   ar
    31    16    17   ar
    32    17    18   ar
    33    18    19   ar
    34    19    20   ar
    35    20    21   ar
    36    21    22   ar
    37    22    13   ar
    38     9     4   ar
    39    21    16   ar
    40    30    25    1
    41    33    35    1
    42    34    36    1
@<TRIPOS>MOLECULE
*****
 39 42 0 0 0
SMALL
GASTEIGER

@<TRIPOS>ATOM
      1 S         141.4769  138.5530  160.2447 S.O2    1  UNL1        0.0638
      2 O         140.7693  139.8603  160.0432 O.2     1  UNL1       -0.1528
      3 O         142.1844  137.2458  160.4462 O.2     1  UNL1       -0.1528
      4 C         139.3479  138.0060  164.1713 C.ar    1  UNL1        0.1391
      5 C         138.5891  138.4768  162.9660 C.ar    1  UNL1        0.0383
      6 C         139.2988  138.6591  161.6571 C.ar    1  UNL1        0.0230
      7 C         140.7672  138.3707  161.5536 C.ar    1  UNL1        0.1224
      8 C         141.5259  137.9000  162.7589 C.ar    1  UNL1        0.0230
      9 C         140.8162  137.7176  164.0677 C.ar    1  UNL1        0.0383
     10 O         138.6382  137.8237  165.4802 O.3     1  UNL1       -0.4706
     11 C         138.3121  139.0165  166.3290 C.3     1  UNL1        0.2321
     12 C         142.6321  140.8506  168.5593 C.3     1  UNL1        0.0521
     13 C         141.4805  141.0308  167.6150 C.ar    1  UNL1        0.0591
     14 C         140.4721  139.9336  167.4441 C.ar    1  UNL1        0.0141
     15 C         139.3205  140.1137  166.5000 C.ar    1  UNL1        0.0238
     16 C         139.1774  141.3911  165.7266 C.ar    1  UNL1        0.0172
     17 C         138.0259  141.5712  164.7825 C.ar    1  UNL1        0.0013
     18 C         137.8828  142.8485  164.0092 C.ar    1  UNL1        0.0001
     19 C         138.8913  143.9457  164.1802 C.ar    1  UNL1        0.0015
     20 C         140.0428  143.7656  165.1243 C.ar    1  UNL1        0.0191
     21 C         140.1859  142.4883  165.8976 C.ar    1  UNL1        0.0807
     22 N         141.3374  142.3081  166.8418 N.ar    1  UNL1       -0.2497
     23 N         142.1865  138.7354  158.9358 N.3     1  UNL1       -0.1451
     24 C         143.3233  139.7081  158.8282 C.3     1  UNL1        0.1155
     25 C         141.7594  137.9450  157.7346 C.3     1  UNL1        0.1721
     26 C         142.8258  136.9302  158.0231 C.3     1  UNL1        0.1203
     27 N         142.3986  136.1399  156.8219 N.am    1  UNL1       -0.2757
     28 C         142.8507  134.8635  156.1766 C.2     1  UNL1        0.2253
     29 O         143.9913  134.0879  156.7662 O.2     1  UNL1       -0.2749
     30 C         141.3323  137.1546  156.5335 C.3     1  UNL1        0.1203
     31 C         140.6931  138.9597  157.4461 C.2     1  UNL1        0.2620
     32 O         141.0486  140.2487  156.7664 O.2     1  UNL1       -0.2715
     33 N         139.2712  138.6854  157.8374 N.am    1  UNL1       -0.1958
     34 O         138.2049  139.7001  157.5489 O.3     1  UNL1       -0.2951
     35 H         139.0378  137.8393  158.2835 H       1  UNL1        0.1823
     36 H         138.6006  140.4691  157.1097 H       1  UNL1        0.2414
     37 C         142.1621  134.3627  154.9417 C.3     1  UNL1        0.0767
     38 C         141.3434  133.1070  154.9965 C.3     1  UNL1        0.0096
     39 C         142.2922  135.1175  153.6520 C.3     1  UNL1        0.0096
@<TRIPOS>BOND
     1    12    13    1
     2    13    14   ar
     3    14    15   ar
     4    15    11    1
     5    11    10    1
     6    10     4    1
     7     4     5   ar
     8     5     6   ar
     9     6     7   ar
    10     7     1    1
    11     1     2    2
    12     1     3    2
    13     1    23    1
    14    23    24    1
    15    23    25    1
    16    25    31    1
    17    31    32    2
    18    31    33   am
    19    33    34    1
    20    25    26    1
    21    26    27    1
    22    27    28   am
    23    28    29    2
    24    28    37    1
    25    37    38    1
    26    37    39    1
    27    27    30    1
    28     7     8   ar
    29     8     9   ar
    30    15    16   ar
    31    16    17   ar
    32    17    18   ar
    33    18    19   ar
    34    19    20   ar
    35    20    21   ar
    36    21    22   ar
    37    22    13   ar
    38     9     4   ar
    39    21    16   ar
    40    30    25    1
    41    33    35    1
    42    34    36    1
@<TRIPOS>MOLECULE
*****
 39 42 0 0 0
SMALL
GASTEIGER

@<TRIPOS>ATOM
      1 S         141.8778  138.1604  158.1873 S.O2    1  UNL1        0.0638
      2 O         140.4194  137.8618  158.3720 O.2     1  UNL1       -0.1528
      3 O         143.3361  138.4590  158.0025 O.2     1  UNL1       -0.1528
      4 C         142.2580  139.0261  162.5868 C.ar    1  UNL1        0.1391
      5 C         143.1979  138.0600  161.9286 C.ar    1  UNL1        0.0383
      6 C         143.0712  137.7714  160.4620 C.ar    1  UNL1        0.0230
      7 C         142.0045  138.4490  159.6538 C.ar    1  UNL1        0.1224
      8 C         141.0646  139.4150  160.3120 C.ar    1  UNL1        0.0230
      9 C         141.1914  139.7036  161.7786 C.ar    1  UNL1        0.0383
     10 O         142.3847  139.3146  164.0533 O.3     1  UNL1       -0.4706
     11 C         141.6229  140.4544  164.6620 C.3     1  UNL1        0.2321
     12 C         137.5271  138.4088  167.1198 C.3     1  UNL1        0.0521
     13 C         138.7884  139.2202  167.1505 C.ar    1  UNL1        0.0591
     14 C         139.5750  139.4316  165.8909 C.ar    1  UNL1        0.0141
     15 C         140.8363  140.2430  165.9216 C.ar    1  UNL1        0.0238
     16 C         141.3109  140.8430  167.2119 C.ar    1  UNL1        0.0172
     17 C         142.5721  141.6543  167.2426 C.ar    1  UNL1        0.0013
     18 C         143.0467  142.2543  168.5328 C.ar    1  UNL1        0.0001
     19 C         142.2601  142.0428  169.7924 C.ar    1  UNL1        0.0015
     20 C         140.9989  141.2315  169.7617 C.ar    1  UNL1        0.0191
     21 C         140.5243  140.6316  168.4715 C.ar    1  UNL1        0.0807
     22 N         139.2630  139.8202  168.4407 N.ar    1  UNL1       -0.2497
     23 N         141.7510  137.8718  156.7207 N.3     1  UNL1       -0.1451
     24 C         141.7282  139.0008  155.7334 C.3     1  UNL1        0.1155
     25 C         141.6471  136.4542  156.2415 C.3     1  UNL1        0.1721
     26 C         142.8584  136.0924  157.0489 C.3     1  UNL1        0.1203
     27 N         142.7544  134.6749  156.5697 N.am    1  UNL1       -0.2757
     28 C         143.5375  133.4167  156.8018 C.2     1  UNL1        0.2253
     29 O         144.7345  133.4342  157.7056 O.2     1  UNL1       -0.2749
     30 C         141.5431  135.0366  155.7624 C.3     1  UNL1        0.1203
     31 C         140.4358  136.8159  155.4342 C.2     1  UNL1        0.2620
     32 O         140.5667  137.0829  153.9640 O.2     1  UNL1       -0.2715
     33 N         139.0935  136.9108  156.0971 N.am    1  UNL1       -0.1958
     34 O         137.8822  137.2725  155.2898 O.3     1  UNL1       -0.2951
     35 H         139.0076  136.7356  157.0621 H       1  UNL1        0.1823
     36 H         138.1396  137.4111  154.3649 H       1  UNL1        0.2414
     37 C         143.1235  132.1411  156.1299 C.3     1  UNL1        0.0767
     38 C         142.9730  132.0937  154.6382 C.3     1  UNL1        0.0096
     39 C         142.8600  130.9128  156.9496 C.3     1  UNL1        0.0096
@<TRIPOS>BOND
     1    12    13    1
     2    13    14   ar
     3    14    15   ar
     4    15    11    1
     5    11    10    1
     6    10     4    1
     7     4     5   ar
     8     5     6   ar
     9     6     7   ar
    10     7     1    1
    11     1     2    2
    12     1     3    2
    13     1    23    1
    14    23    24    1
    15    23    25    1
    16    25    31    1
    17    31    32    2
    18    31    33   am
    19    33    34    1
    20    25    26    1
    21    26    27    1
    22    27    28   am
    23    28    29    2
    24    28    37    1
    25    37    38    1
    26    37    39    1
    27    27    30    1
    28     7     8   ar
    29     8     9   ar
    30    15    16   ar
    31    16    17   ar
    32    17    18   ar
    33    18    19   ar
    34    19    20   ar
    35    20    21   ar
    36    21    22   ar
    37    22    13   ar
    38     9     4   ar
    39    21    16   ar
    40    30    25    1
    41    33    35    1
    42    34    36    1
@<TRIPOS>MOLECULE
*****
 39 42 0 0 0
SMALL
GASTEIGER

@<TRIPOS>ATOM
      1 S         142.3079  138.7371  159.0898 S.O2    1  UNL1        0.0638
      2 O         140.8923  138.2785  159.2792 O.2     1  UNL1       -0.1528
      3 O         143.7235  139.1956  158.9005 O.2     1  UNL1       -0.1528
      4 C         142.9859  138.4777  163.5309 C.ar    1  UNL1        0.1391
      5 C         141.7957  137.8053  162.9134 C.ar    1  UNL1        0.0383
      6 C         141.5697  137.8917  161.4330 C.ar    1  UNL1        0.0230
      7 C         142.5339  138.6506  160.5702 C.ar    1  UNL1        0.1224
      8 C         143.7241  139.3230  161.1877 C.ar    1  UNL1        0.0230
      9 C         143.9501  139.2365  162.6680 C.ar    1  UNL1        0.0383
     10 O         143.2119  138.3913  165.0112 O.3     1  UNL1       -0.4706
     11 C         142.5627  139.3849  165.9283 C.3     1  UNL1        0.2321
     12 C         138.0149  141.3468  164.3572 C.3     1  UNL1        0.0521
     13 C         139.4911  141.5017  164.5741 C.ar    1  UNL1        0.0591
     14 C         140.2888  140.3659  165.1428 C.ar    1  UNL1        0.0141
     15 C         141.7649  140.5207  165.3596 C.ar    1  UNL1        0.0238
     16 C         142.4433  141.8115  165.0078 C.ar    1  UNL1        0.0172
     17 C         143.9195  141.9664  165.2247 C.ar    1  UNL1        0.0013
     18 C         144.5978  143.2571  164.8728 C.ar    1  UNL1        0.0001
     19 C         143.8001  144.3929  164.3041 C.ar    1  UNL1        0.0015
     20 C         142.3240  144.2381  164.0873 C.ar    1  UNL1        0.0191
     21 C         141.6456  142.9474  164.4391 C.ar    1  UNL1        0.0807
     22 N         140.1694  142.7925  164.2222 N.ar    1  UNL1       -0.2497
     23 N         142.0819  138.8235  157.6095 N.3     1  UNL1       -0.1451
     24 C         142.2235  140.1400  156.9048 C.3     1  UNL1        0.1155
     25 C         141.7142  137.5933  156.8338 C.3     1  UNL1        0.1721
     26 C         142.8634  136.8573  157.4563 C.3     1  UNL1        0.1203
     27 N         142.4957  135.6272  156.6807 N.am    1  UNL1       -0.2757
     28 C         143.0484  134.2369  156.5724 C.2     1  UNL1        0.2253
     29 O         144.2537  133.8444  157.3745 O.2     1  UNL1       -0.2749
     30 C         141.3465  136.3632  156.0582 C.3     1  UNL1        0.1203
     31 C         140.5650  138.3293  156.2113 C.2     1  UNL1        0.2620
     32 O         140.6780  138.8475  154.8082 O.2     1  UNL1       -0.2715
     33 N         139.3028  138.5473  156.9920 N.am    1  UNL1       -0.1958
     34 O         138.1536  139.2833  156.3695 O.3     1  UNL1       -0.2951
     35 H         139.2286  138.2072  157.9129 H       1  UNL1        0.1823
     36 H         138.3899  139.5476  155.4666 H       1  UNL1        0.2414
     37 C         142.3958  133.2393  155.6621 C.3     1  UNL1        0.0767
     38 C         141.9479  133.6548  154.2921 C.3     1  UNL1        0.0096
     39 C         142.1910  131.8262  156.1216 C.3     1  UNL1        0.0096
@<TRIPOS>BOND
     1    12    13    1
     2    13    14   ar
     3    14    15   ar
     4    15    11    1
     5    11    10    1
     6    10     4    1
     7     4     5   ar
     8     5     6   ar
     9     6     7   ar
    10     7     1    1
    11     1     2    2
    12     1     3    2
    13     1    23    1
    14    23    24    1
    15    23    25    1
    16    25    31    1
    17    31    32    2
    18    31    33   am
    19    33    34    1
    20    25    26    1
    21    26    27    1
    22    27    28   am
    23    28    29    2
    24    28    37    1
    25    37    38    1
    26    37    39    1
    27    27    30    1
    28     7     8   ar
    29     8     9   ar
    30    15    16   ar
    31    16    17   ar
    32    17    18   ar
    33    18    19   ar
    34    19    20   ar
    35    20    21   ar
    36    21    22   ar
    37    22    13   ar
    38     9     4   ar
    39    21    16   ar
    40    30    25    1
    41    33    35    1
    42    34    36    1
@<TRIPOS>MOLECULE
*****
 39 42 0 0 0
SMALL
GASTEIGER

@<TRIPOS>ATOM
      1 S         143.4433  142.4061  160.5599 S.O2    1  UNL1        0.0638
      2 O         142.8492  143.7805  160.6496 O.2     1  UNL1       -0.1528
      3 O         144.0374  141.0317  160.4703 O.2     1  UNL1       -0.1528
      4 C         143.1980  142.0081  165.0356 C.ar    1  UNL1        0.1391
      5 C         143.0368  143.3536  164.3923 C.ar    1  UNL1        0.0383
      6 C         143.1185  143.4863  162.9004 C.ar    1  UNL1        0.0230
      7 C         143.3615  142.2734  162.0518 C.ar    1  UNL1        0.1224
      8 C         143.5227  140.9280  162.6951 C.ar    1  UNL1        0.0230
      9 C         143.4409  140.7954  164.1870 C.ar    1  UNL1        0.0383
     10 O         143.1162  141.8754  166.5275 O.3     1  UNL1       -0.4706
     11 C         141.7959  141.6028  167.1849 C.3     1  UNL1        0.2321
     12 C         139.0331  137.7030  165.1456 C.3     1  UNL1        0.0521
     13 C         139.2534  139.1733  165.3457 C.ar    1  UNL1        0.0591
     14 C         140.4145  139.6530  166.1653 C.ar    1  UNL1        0.0141
     15 C         140.6348  141.1231  166.3654 C.ar    1  UNL1        0.0238
     16 C         139.6939  142.1137  165.7459 C.ar    1  UNL1        0.0172
     17 C         139.9142  143.5838  165.9460 C.ar    1  UNL1        0.0013
     18 C         138.9733  144.5743  165.3265 C.ar    1  UNL1        0.0001
     19 C         137.8122  144.0946  164.5070 C.ar    1  UNL1        0.0015
     20 C         137.5919  142.6244  164.3069 C.ar    1  UNL1        0.0191
     21 C         138.5328  141.6340  164.9263 C.ar    1  UNL1        0.0807
     22 N         138.3125  140.1637  164.7262 N.ar    1  UNL1       -0.2497
     23 N         143.5250  142.5387  159.0680 N.3     1  UNL1       -0.1451
     24 C         144.8528  142.7605  158.4065 C.3     1  UNL1        0.1155
     25 C         142.2789  142.4496  158.2377 C.3     1  UNL1        0.1721
     26 C         141.9491  141.1319  158.8741 C.3     1  UNL1        0.1203
     27 N         140.7031  141.0428  158.0438 N.am    1  UNL1       -0.2757
     28 C         139.5888  140.0480  157.9067 C.2     1  UNL1        0.2253
     29 O         139.5928  138.7983  158.7363 O.2     1  UNL1       -0.2749
     30 C         141.0329  142.3605  157.4075 C.3     1  UNL1        0.1203
     31 C         142.6087  143.7672  157.6014 C.2     1  UNL1        0.2620
     32 O         143.2091  143.8072  156.2273 O.2     1  UNL1       -0.2715
     33 N         142.3382  145.0450  158.3391 N.am    1  UNL1       -0.1958
     34 O         142.6680  146.3627  157.7027 O.3     1  UNL1       -0.2951
     35 H         141.9442  145.0188  159.2409 H       1  UNL1        0.1823
     36 H         143.0456  146.2110  156.8222 H       1  UNL1        0.2414
     37 C         138.4706  140.3030  156.9400 C.3     1  UNL1        0.0767
     38 C         137.3476  141.2228  157.3180 C.3     1  UNL1        0.0096
     39 C         138.4753  139.6383  155.5954 C.3     1  UNL1        0.0096
@<TRIPOS>BOND
     1    12    13    1
     2    13    14   ar
     3    14    15   ar
     4    15    11    1
     5    11    10    1
     6    10     4    1
     7     4     5   ar
     8     5     6   ar
     9     6     7   ar
    10     7     1    1
    11     1     2    2
    12     1     3    2
    13     1    23    1
    14    23    24    1
    15    23    25    1
    16    25    31    1
    17    31    32    2
    18    31    33   am
    19    33    34    1
    20    25    26    1
    21    26    27    1
    22    27    28   am
    23    28    29    2
    24    28    37    1
    25    37    38    1
    26    37    39    1
    27    27    30    1
    28     7     8   ar
    29     8     9   ar
    30    15    16   ar
    31    16    17   ar
    32    17    18   ar
    33    18    19   ar
    34    19    20   ar
    35    20    21   ar
    36    21    22   ar
    37    22    13   ar
    38     9     4   ar
    39    21    16   ar
    40    30    25    1
    41    33    35    1
    42    34    36    1
@<TRIPOS>MOLECULE
*****
 39 42 0 0 0
SMALL
GASTEIGER

@<TRIPOS>ATOM
      1 S         140.9159  138.5494  159.8058 S.O2    1  UNL1        0.0638
      2 O         139.5329  138.3195  159.2725 O.2     1  UNL1       -0.1528
      3 O         142.2989  138.7793  160.3392 O.2     1  UNL1       -0.1528
      4 C         139.4233  137.8241  163.9887 C.ar    1  UNL1        0.1391
      5 C         138.4539  138.1588  162.8939 C.ar    1  UNL1        0.0383
      6 C         138.9514  138.4006  161.4997 C.ar    1  UNL1        0.0230
      7 C         140.4183  138.3076  161.2001 C.ar    1  UNL1        0.1224
      8 C         141.3876  137.9730  162.2948 C.ar    1  UNL1        0.0230
      9 C         140.8901  137.7312  163.6891 C.ar    1  UNL1        0.0383
     10 O         138.9258  137.5824  165.3830 O.3     1  UNL1       -0.4706
     11 C         138.4857  138.7372  166.2331 C.3     1  UNL1        0.2321
     12 C         142.6225  140.8720  168.5417 C.3     1  UNL1        0.0521
     13 C         141.4673  140.9771  167.5906 C.ar    1  UNL1        0.0591
     14 C         140.5541  139.8046  167.3873 C.ar    1  UNL1        0.0141
     15 C         139.3989  139.9097  166.4363 C.ar    1  UNL1        0.0238
     16 C         139.1569  141.1873  165.6885 C.ar    1  UNL1        0.0172
     17 C         138.0017  141.2924  164.7375 C.ar    1  UNL1        0.0013
     18 C         137.7597  142.5700  163.9897 C.ar    1  UNL1        0.0001
     19 C         138.6729  143.7425  164.1930 C.ar    1  UNL1        0.0015
     20 C         139.8281  143.6374  165.1440 C.ar    1  UNL1        0.0191
     21 C         140.0700  142.3598  165.8918 C.ar    1  UNL1        0.0807
     22 N         141.2253  142.2547  166.8429 N.ar    1  UNL1       -0.2497
     23 N         141.4134  138.7911  158.4116 N.3     1  UNL1       -0.1451
     24 C         142.7284  138.2171  157.9744 C.3     1  UNL1        0.1155
     25 C         140.5959  139.6071  157.4544 C.3     1  UNL1        0.1721
     26 C         140.5500  140.7285  158.4495 C.3     1  UNL1        0.1203
     27 N         139.7325  141.5443  157.4924 N.am    1  UNL1       -0.2757
     28 C         139.1220  142.9142  157.5194 C.2     1  UNL1        0.2253
     29 O         139.2893  143.7863  158.7283 O.2     1  UNL1       -0.2749
     30 C         139.7784  140.4229  156.4973 C.3     1  UNL1        0.1203
     31 C         140.6417  138.4856  156.4594 C.2     1  UNL1        0.2620
     32 O         141.4566  138.6262  155.2079 O.2     1  UNL1       -0.2715
     33 N         139.8727  137.2235  156.7157 N.am    1  UNL1       -0.1958
     34 O         139.9185  136.1020  155.7206 O.3     1  UNL1       -0.2951
     35 H         139.3378  137.1312  157.5371 H       1  UNL1        0.1823
     36 H         140.4860  136.3541  154.9754 H       1  UNL1        0.2414
     37 C         138.3442  143.4120  156.3373 C.3     1  UNL1        0.0767
     38 C         138.9193  144.4825  155.4580 C.3     1  UNL1        0.0096
     39 C         136.9914  142.8392  156.0344 C.3     1  UNL1        0.0096
@<TRIPOS>BOND
     1    12    13    1
     2    13    14   ar
     3    14    15   ar
     4    15    11    1
     5    11    10    1
     6    10     4    1
     7     4     5   ar
     8     5     6   ar
     9     6     7   ar
    10     7     1    1
    11     1     2    2
    12     1     3    2
    13     1    23    1
    14    23    24    1
    15    23    25    1
    16    25    31    1
    17    31    32    2
    18    31    33   am
    19    33    34    1
    20    25    26    1
    21    26    27    1
    22    27    28   am
    23    28    29    2
    24    28    37    1
    25    37    38    1
    26    37    39    1
    27    27    30    1
    28     7     8   ar
    29     8     9   ar
    30    15    16   ar
    31    16    17   ar
    32    17    18   ar
    33    18    19   ar
    34    19    20   ar
    35    20    21   ar
    36    21    22   ar
    37    22    13   ar
    38     9     4   ar
    39    21    16   ar
    40    30    25    1
    41    33    35    1
    42    34    36    1
