@<TRIPOS>MOLECULE
*****
 37 41 0 0 0
SMALL
GASTEIGER

@<TRIPOS>ATOM
      1 C         138.1758  140.1091  165.0432 C.3     1  UNL1        0.0768
      2 N         138.1608  141.3152  164.1515 N.3     1  UNL1       -0.2724
      3 C         137.5118  141.4060  162.8021 C.3     1  UNL1        0.0721
      4 C         137.7420  142.7891  162.2692 C.3     1  UNL1        0.0187
      5 C         138.5332  143.5531  163.2891 C.3     1  UNL1        0.0178
      6 C         138.7920  142.6421  164.4524 C.3     1  UNL1        0.0721
      7 C         138.9861  144.9779  163.1672 C.3     1  UNL1        0.0077
      8 C         140.3082  145.2928  162.5325 C.3     1  UNL1        0.0459
      9 C         141.5400  144.5496  162.9572 C.ar    1  UNL1        0.0603
     10 C         142.5355  145.2059  163.8674 C.ar    1  UNL1        0.0145
     11 C         143.7673  144.4628  164.2920 C.ar    1  UNL1       -0.0003
     12 C         144.0037  143.0633  163.8065 C.ar    1  UNL1        0.0092
     13 C         143.0083  142.4070  162.8963 C.ar    1  UNL1        0.1240
     14 N         141.7764  143.1502  162.4717 N.ar    1  UNL1       -0.2356
     15 N         143.2446  141.0076  162.4108 N.pl3   1  UNL1       -0.3184
     16 C         144.4764  140.2645  162.8355 C.3     1  UNL1        0.0885
     17 C         145.4719  140.9208  163.7457 C.3     1  UNL1        0.0260
     18 C         145.2355  142.3202  164.2312 C.3     1  UNL1        0.0309
     19 H         142.5913  140.5769  161.8135 H       1  UNL1        0.1482
     20 C         139.1955  139.0301  164.8283 C.3     1  UNL1        0.0439
     21 C         140.5793  139.1839  165.3865 C.ar    1  UNL1       -0.0178
     22 C         141.6304  138.1590  165.0787 C.ar    1  UNL1       -0.0040
     23 C         143.0141  138.3129  165.6369 C.ar    1  UNL1        0.0028
     24 C         143.3468  139.4917  166.5029 C.ar    1  UNL1        0.0369
     25 C         142.2957  140.5166  166.8106 C.ar    1  UNL1        0.1381
     26 C         140.9119  140.3627  166.2524 C.ar    1  UNL1        0.0327
     27 O         142.6283  141.6954  167.6765 O.3     1  UNL1       -0.4790
     28 C         141.8807  141.9198  168.9573 C.3     1  UNL1        0.1709
     29 C         140.8127  142.9706  169.0282 C.3     1  UNL1        0.0756
     30 C         140.0650  143.1950  170.3091 C.3     1  UNL1        0.1459
     31 O         140.3854  142.3685  171.5192 O.3     1  UNL1       -0.3535
     32 C         141.4534  141.3177  171.4484 C.3     1  UNL1        0.1459
     33 C         142.2011  141.0933  170.1674 C.3     1  UNL1        0.0756
     34 C         138.8313  137.7974  164.0552 C.3     1  UNL1        0.0474
     35 O         137.6600  138.0202  161.7468 O.co2   1  UNL1       -0.5492
     36 C         138.9037  137.8030  162.5569 C.2     1  UNL1        0.0507
     37 O         140.2196  137.5914  161.8688 O.co2   1  UNL1       -0.5492
@<TRIPOS>UNITY_ATOM_ATTR
35 1
charge -1
@<TRIPOS>BOND
     1    35    36   ar
     2    36    37   ar
     3    36    34    1
     4    20    34    1
     5    20     1    1
     6     1     2    1
     7     2     3    1
     8     3     4    1
     9     4     5    1
    10     5     7    1
    11     7     8    1
    12     8     9    1
    13     9    10   ar
    14    10    11   ar
    15    11    12   ar
    16    12    13   ar
    17    13    14   ar
    18    13    15    1
    19    15    16    1
    20    16    17    1
    21    17    18    1
    22     5     6    1
    23    20    21    1
    24    21    22   ar
    25    22    23   ar
    26    23    24   ar
    27    24    25   ar
    28    25    27    1
    29    27    28    1
    30    28    29    1
    31    29    30    1
    32    30    31    1
    33    31    32    1
    34    32    33    1
    35    25    26   ar
    36     6     2    1
    37    26    21   ar
    38    14     9   ar
    39    33    28    1
    40    18    12    1
    41    15    19    1
@<TRIPOS>MOLECULE
*****
 37 41 0 0 0
SMALL
GASTEIGER

@<TRIPOS>ATOM
      1 C         141.6475  141.7644  167.9205 C.3     1  UNL1        0.0768
      2 N         141.2204  142.5283  166.7023 N.3     1  UNL1       -0.2724
      3 C         141.9959  142.6557  165.4246 C.3     1  UNL1        0.0721
      4 C         141.1976  143.5052  164.4806 C.3     1  UNL1        0.0187
      5 C         139.9288  143.9028  165.1748 C.3     1  UNL1        0.0178
      6 C         139.9429  143.2991  166.5479 C.3     1  UNL1        0.0721
      7 C         138.8376  144.7546  164.5974 C.3     1  UNL1        0.0077
      8 C         137.6260  144.1116  163.9904 C.3     1  UNL1        0.0459
      9 C         137.7860  143.0357  162.9574 C.ar    1  UNL1        0.0603
     10 C         137.5923  141.5973  163.3365 C.ar    1  UNL1        0.0145
     11 C         137.7522  140.5214  162.3036 C.ar    1  UNL1       -0.0003
     12 C         138.1059  140.8839  160.8916 C.ar    1  UNL1        0.0092
     13 C         138.2996  142.3222  160.5126 C.ar    1  UNL1        0.1240
     14 N         138.1396  143.3981  161.5456 N.ar    1  UNL1       -0.2356
     15 N         138.6533  142.6847  159.1007 N.pl3   1  UNL1       -0.3184
     16 C         138.8133  141.6088  158.0679 C.3     1  UNL1        0.0885
     17 C         138.6196  140.1704  158.4469 C.3     1  UNL1        0.0260
     18 C         138.2659  139.8080  159.8588 C.3     1  UNL1        0.0309
     19 H         138.7804  143.6287  158.8519 H       1  UNL1        0.1482
     20 C         141.0823  140.4007  168.1869 C.3     1  UNL1        0.0439
     21 C         140.4294  139.6296  167.0781 C.ar    1  UNL1       -0.0178
     22 C         138.9347  139.6164  166.9529 C.ar    1  UNL1       -0.0040
     23 C         138.2819  138.8454  165.8441 C.ar    1  UNL1        0.0028
     24 C         139.1237  138.0876  164.8606 C.ar    1  UNL1        0.0369
     25 C         140.6184  138.1009  164.9859 C.ar    1  UNL1        0.1381
     26 C         141.2712  138.8719  166.0947 C.ar    1  UNL1        0.0327
     27 O         141.4602  137.3432  164.0024 O.3     1  UNL1       -0.4790
     28 C         142.0413  138.0482  162.8128 C.3     1  UNL1        0.1709
     29 C         143.4115  138.6530  162.8948 C.3     1  UNL1        0.0756
     30 C         143.9926  139.3580  161.7051 C.3     1  UNL1        0.1459
     31 O         143.2034  139.4583  160.4334 O.3     1  UNL1       -0.3535
     32 C         141.8331  138.8536  160.3514 C.3     1  UNL1        0.1459
     33 C         141.2520  138.1485  161.5412 C.3     1  UNL1        0.0756
     34 C         141.1700  139.8080  169.5621 C.3     1  UNL1        0.0474
     35 O         138.7625  139.8894  170.5354 O.co2   1  UNL1       -0.5492
     36 C         140.2154  140.2498  170.6315 C.2     1  UNL1        0.0507
     37 O         140.7137  141.0519  171.7969 O.co2   1  UNL1       -0.5492
@<TRIPOS>UNITY_ATOM_ATTR
35 1
charge -1
@<TRIPOS>BOND
     1    35    36   ar
     2    36    37   ar
     3    36    34    1
     4    20    34    1
     5    20     1    1
     6     1     2    1
     7     2     3    1
     8     3     4    1
     9     4     5    1
    10     5     7    1
    11     7     8    1
    12     8     9    1
    13     9    10   ar
    14    10    11   ar
    15    11    12   ar
    16    12    13   ar
    17    13    14   ar
    18    13    15    1
    19    15    16    1
    20    16    17    1
    21    17    18    1
    22     5     6    1
    23    20    21    1
    24    21    22   ar
    25    22    23   ar
    26    23    24   ar
    27    24    25   ar
    28    25    27    1
    29    27    28    1
    30    28    29    1
    31    29    30    1
    32    30    31    1
    33    31    32    1
    34    32    33    1
    35    25    26   ar
    36     6     2    1
    37    26    21   ar
    38    14     9   ar
    39    33    28    1
    40    18    12    1
    41    15    19    1
@<TRIPOS>MOLECULE
*****
 37 41 0 0 0
SMALL
GASTEIGER

@<TRIPOS>ATOM
      1 C         138.4728  138.8315  163.4663 C.3     1  UNL1        0.0768
      2 N         138.2043  140.2998  163.3174 N.3     1  UNL1       -0.2724
      3 C         137.9414  141.0218  162.0291 C.3     1  UNL1        0.0721
      4 C         137.7262  142.4720  162.3461 C.3     1  UNL1        0.0187
      5 C         137.8560  142.6463  163.8303 C.3     1  UNL1        0.0178
      6 C         138.1514  141.3038  164.4306 C.3     1  UNL1        0.0721
      7 C         137.7150  143.9366  164.5821 C.3     1  UNL1        0.0077
      8 C         138.9365  144.6573  165.0704 C.3     1  UNL1        0.0459
      9 C         140.2961  144.0628  164.8510 C.ar    1  UNL1        0.0603
     10 C         140.8882  143.1452  165.8793 C.ar    1  UNL1        0.0145
     11 C         142.2478  142.5507  165.6599 C.ar    1  UNL1       -0.0003
     12 C         143.0152  142.8737  164.4121 C.ar    1  UNL1        0.0092
     13 C         142.4230  143.7912  163.3838 C.ar    1  UNL1        0.1240
     14 N         141.0634  144.3858  163.6033 N.ar    1  UNL1       -0.2356
     15 N         143.1903  144.1143  162.1361 N.pl3   1  UNL1       -0.3184
     16 C         144.5499  143.5197  161.9168 C.3     1  UNL1        0.0885
     17 C         145.1420  142.6022  162.9451 C.3     1  UNL1        0.0260
     18 C         144.3747  142.2791  164.1927 C.3     1  UNL1        0.0309
     19 H         142.8017  144.7165  161.4612 H       1  UNL1        0.1482
     20 C         139.1724  138.3173  164.6895 C.3     1  UNL1        0.0439
     21 C         140.6414  138.5607  164.8714 C.ar    1  UNL1       -0.0178
     22 C         141.5478  138.6052  163.6771 C.ar    1  UNL1       -0.0040
     23 C         143.0167  138.8486  163.8590 C.ar    1  UNL1        0.0028
     24 C         143.5792  139.0475  165.2353 C.ar    1  UNL1        0.0369
     25 C         142.6728  139.0031  166.4296 C.ar    1  UNL1        0.1381
     26 C         141.2039  138.7597  166.2477 C.ar    1  UNL1        0.0327
     27 O         143.2353  139.2021  167.8058 O.3     1  UNL1       -0.4790
     28 C         142.5705  140.1518  168.7576 C.3     1  UNL1        0.1709
     29 C         141.4324  139.6816  169.6140 C.3     1  UNL1        0.0756
     30 C         140.7675  140.6314  170.5658 C.3     1  UNL1        0.1459
     31 O         141.2410  142.0516  170.6612 O.3     1  UNL1       -0.3535
     32 C         142.3791  142.5219  169.8048 C.3     1  UNL1        0.1459
     33 C         143.0439  141.5720  168.8530 C.3     1  UNL1        0.0756
     34 C         138.4032  137.5597  165.7308 C.3     1  UNL1        0.0474
     35 O         136.6229  137.7029  167.6177 O.co2   1  UNL1       -0.5492
     36 C         137.8005  138.2877  166.8957 C.2     1  UNL1        0.0507
     37 O         138.3755  139.6004  167.3385 O.co2   1  UNL1       -0.5492
@<TRIPOS>UNITY_ATOM_ATTR
35 1
charge -1
@<TRIPOS>BOND
     1    35    36   ar
     2    36    37   ar
     3    36    34    1
     4    20    34    1
     5    20     1    1
     6     1     2    1
     7     2     3    1
     8     3     4    1
     9     4     5    1
    10     5     7    1
    11     7     8    1
    12     8     9    1
    13     9    10   ar
    14    10    11   ar
    15    11    12   ar
    16    12    13   ar
    17    13    14   ar
    18    13    15    1
    19    15    16    1
    20    16    17    1
    21    17    18    1
    22     5     6    1
    23    20    21    1
    24    21    22   ar
    25    22    23   ar
    26    23    24   ar
    27    24    25   ar
    28    25    27    1
    29    27    28    1
    30    28    29    1
    31    29    30    1
    32    30    31    1
    33    31    32    1
    34    32    33    1
    35    25    26   ar
    36     6     2    1
    37    26    21   ar
    38    14     9   ar
    39    33    28    1
    40    18    12    1
    41    15    19    1
@<TRIPOS>MOLECULE
*****
 37 41 0 0 0
SMALL
GASTEIGER

@<TRIPOS>ATOM
      1 C         140.5200  144.0114  164.7460 C.3     1  UNL1        0.0768
      2 N         141.9090  143.8235  164.2119 N.3     1  UNL1       -0.2724
      3 C         142.5052  144.5375  163.0351 C.3     1  UNL1        0.0721
      4 C         143.9104  144.0439  162.8567 C.3     1  UNL1        0.0187
      5 C         144.1827  143.0250  163.9232 C.3     1  UNL1        0.0178
      6 C         142.9458  142.8887  164.7608 C.3     1  UNL1        0.0721
      7 C         145.4665  142.2740  164.1180 C.3     1  UNL1        0.0077
      8 C         145.5131  140.7939  163.8794 C.3     1  UNL1        0.0459
      9 C         144.2533  139.9827  163.9497 C.ar    1  UNL1        0.0603
     10 C         143.9047  139.2464  165.2092 C.ar    1  UNL1        0.0145
     11 C         142.6450  138.4353  165.2796 C.ar    1  UNL1       -0.0003
     12 C         141.7337  138.3605  164.0904 C.ar    1  UNL1        0.0092
     13 C         142.0822  139.0968  162.8309 C.ar    1  UNL1        0.1240
     14 N         143.3421  139.9080  162.7606 N.ar    1  UNL1       -0.2356
     15 N         141.1710  139.0220  161.6418 N.pl3   1  UNL1       -0.3184
     16 C         139.9112  138.2109  161.7122 C.3     1  UNL1        0.0885
     17 C         139.5627  137.4746  162.9717 C.3     1  UNL1        0.0260
     18 C         140.4739  137.5493  164.1608 C.3     1  UNL1        0.0309
     19 H         141.3997  139.5053  160.8152 H       1  UNL1        0.1482
     20 C         139.4426  143.0282  164.3962 C.3     1  UNL1        0.0439
     21 C         139.2512  141.7966  165.2310 C.ar    1  UNL1       -0.0178
     22 C         138.2021  140.7922  164.8565 C.ar    1  UNL1       -0.0040
     23 C         138.0108  139.5607  165.6913 C.ar    1  UNL1        0.0028
     24 C         138.8687  139.3337  166.9006 C.ar    1  UNL1        0.0369
     25 C         139.9178  140.3382  167.2752 C.ar    1  UNL1        0.1381
     26 C         140.1091  141.5696  166.4404 C.ar    1  UNL1        0.0327
     27 O         140.7757  140.1112  168.4846 O.3     1  UNL1       -0.4790
     28 C         141.4704  141.2683  169.1391 C.3     1  UNL1        0.1709
     29 C         142.9639  141.2654  169.2778 C.3     1  UNL1        0.0756
     30 C         143.6586  142.4226  169.9325 C.3     1  UNL1        0.1459
     31 O         142.8597  143.5826  170.4484 O.3     1  UNL1       -0.3535
     32 C         141.3661  143.5854  170.3097 C.3     1  UNL1        0.1459
     33 C         140.6714  142.4282  169.6550 C.3     1  UNL1        0.0756
     34 C         138.5565  143.2764  163.2116 C.3     1  UNL1        0.0474
     35 O         140.1900  141.9327  161.7028 O.co2   1  UNL1       -0.5492
     36 C         138.9591  142.7764  161.8559 C.2     1  UNL1        0.0507
     37 O         138.1310  143.1199  160.6534 O.co2   1  UNL1       -0.5492
@<TRIPOS>UNITY_ATOM_ATTR
35 1
charge -1
@<TRIPOS>BOND
     1    35    36   ar
     2    36    37   ar
     3    36    34    1
     4    20    34    1
     5    20     1    1
     6     1     2    1
     7     2     3    1
     8     3     4    1
     9     4     5    1
    10     5     7    1
    11     7     8    1
    12     8     9    1
    13     9    10   ar
    14    10    11   ar
    15    11    12   ar
    16    12    13   ar
    17    13    14   ar
    18    13    15    1
    19    15    16    1
    20    16    17    1
    21    17    18    1
    22     5     6    1
    23    20    21    1
    24    21    22   ar
    25    22    23   ar
    26    23    24   ar
    27    24    25   ar
    28    25    27    1
    29    27    28    1
    30    28    29    1
    31    29    30    1
    32    30    31    1
    33    31    32    1
    34    32    33    1
    35    25    26   ar
    36     6     2    1
    37    26    21   ar
    38    14     9   ar
    39    33    28    1
    40    18    12    1
    41    15    19    1
@<TRIPOS>MOLECULE
*****
 37 41 0 0 0
SMALL
GASTEIGER

@<TRIPOS>ATOM
      1 C         141.6715  137.5796  163.3935 C.3     1  UNL1        0.0768
      2 N         142.7040  138.6098  163.0436 N.3     1  UNL1       -0.2724
      3 C         142.9270  139.2092  161.6867 C.3     1  UNL1        0.0721
      4 C         144.0557  140.1913  161.7935 C.3     1  UNL1        0.0187
      5 C         144.5303  140.1990  163.2164 C.3     1  UNL1        0.0178
      6 C         143.6949  139.2216  163.9890 C.3     1  UNL1        0.0721
      7 C         145.6446  141.0370  163.7696 C.3     1  UNL1        0.0077
      8 C         145.3521  142.3953  164.3347 C.3     1  UNL1        0.0459
      9 C         144.0412  143.0631  164.0419 C.ar    1  UNL1        0.0603
     10 C         143.8907  143.9149  162.8164 C.ar    1  UNL1        0.0145
     11 C         142.5798  144.5826  162.5236 C.ar    1  UNL1       -0.0003
     12 C         141.4195  144.3986  163.4562 C.ar    1  UNL1        0.0092
     13 C         141.5700  143.5468  164.6817 C.ar    1  UNL1        0.1240
     14 N         142.8809  142.8791  164.9745 N.ar    1  UNL1       -0.2356
     15 N         140.4098  143.3628  165.6143 N.pl3   1  UNL1       -0.3184
     16 C         139.0989  144.0306  165.3215 C.3     1  UNL1        0.0885
     17 C         138.9484  144.8824  164.0960 C.3     1  UNL1        0.0260
     18 C         140.1087  145.0664  163.1634 C.3     1  UNL1        0.0309
     19 H         140.5086  142.8038  166.4187 H       1  UNL1        0.1482
     20 C         140.2217  137.9602  163.4513 C.3     1  UNL1        0.0439
     21 C         139.6078  138.3803  164.7539 C.ar    1  UNL1       -0.0178
     22 C         138.4640  137.5996  165.3303 C.ar    1  UNL1       -0.0040
     23 C         137.8502  138.0196  166.6329 C.ar    1  UNL1        0.0028
     24 C         138.3802  139.2204  167.3591 C.ar    1  UNL1        0.0369
     25 C         139.5240  140.0011  166.7827 C.ar    1  UNL1        0.1381
     26 C         140.1378  139.5810  165.4801 C.ar    1  UNL1        0.0327
     27 O         140.0540  141.2018  167.5089 O.3     1  UNL1       -0.4790
     28 C         141.2417  141.0665  168.4149 C.3     1  UNL1        0.1709
     29 C         142.2597  142.1659  168.4863 C.3     1  UNL1        0.0756
     30 C         143.4475  142.0305  169.3924 C.3     1  UNL1        0.1459
     31 O         143.6173  140.7957  170.2269 O.3     1  UNL1       -0.3535
     32 C         142.5994  139.6964  170.1555 C.3     1  UNL1        0.1459
     33 C         141.4116  139.8317  169.2495 C.3     1  UNL1        0.0756
     34 C         139.3858  137.9209  162.2064 C.3     1  UNL1        0.0474
     35 O         139.5002  139.7987  160.4145 O.co2   1  UNL1       -0.5492
     36 C         138.8488  139.1942  161.6230 C.2     1  UNL1        0.0507
     37 O         137.6605  139.8629  162.2480 O.co2   1  UNL1       -0.5492
@<TRIPOS>UNITY_ATOM_ATTR
35 1
charge -1
@<TRIPOS>BOND
     1    35    36   ar
     2    36    37   ar
     3    36    34    1
     4    20    34    1
     5    20     1    1
     6     1     2    1
     7     2     3    1
     8     3     4    1
     9     4     5    1
    10     5     7    1
    11     7     8    1
    12     8     9    1
    13     9    10   ar
    14    10    11   ar
    15    11    12   ar
    16    12    13   ar
    17    13    14   ar
    18    13    15    1
    19    15    16    1
    20    16    17    1
    21    17    18    1
    22     5     6    1
    23    20    21    1
    24    21    22   ar
    25    22    23   ar
    26    23    24   ar
    27    24    25   ar
    28    25    27    1
    29    27    28    1
    30    28    29    1
    31    29    30    1
    32    30    31    1
    33    31    32    1
    34    32    33    1
    35    25    26   ar
    36     6     2    1
    37    26    21   ar
    38    14     9   ar
    39    33    28    1
    40    18    12    1
    41    15    19    1
@<TRIPOS>MOLECULE
*****
 37 41 0 0 0
SMALL
GASTEIGER

@<TRIPOS>ATOM
      1 C         137.4486  140.6861  162.6738 C.3     1  UNL1        0.0768
      2 N         137.7903  142.1057  163.0170 N.3     1  UNL1       -0.2724
      3 C         137.4555  142.8078  164.2997 C.3     1  UNL1        0.0721
      4 C         137.9851  144.2086  164.2132 C.3     1  UNL1        0.0187
      5 C         138.6471  144.3722  162.8772 C.3     1  UNL1        0.0178
      6 C         138.5267  143.0726  162.1380 C.3     1  UNL1        0.0721
      7 C         139.3127  145.6169  162.3697 C.3     1  UNL1        0.0077
      8 C         140.6695  145.5365  161.7352 C.3     1  UNL1        0.0459
      9 C         141.7678  144.7678  162.4083 C.ar    1  UNL1        0.0603
     10 C         142.3988  145.3018  163.6600 C.ar    1  UNL1        0.0145
     11 C         143.4970  144.5333  164.3330 C.ar    1  UNL1       -0.0003
     12 C         143.9643  143.2306  163.7545 C.ar    1  UNL1        0.0092
     13 C         143.3333  142.6965  162.5028 C.ar    1  UNL1        0.1240
     14 N         142.2350  143.4652  161.8297 N.ar    1  UNL1       -0.2356
     15 N         143.8006  141.3939  161.9243 N.pl3   1  UNL1       -0.3184
     16 C         144.8988  140.6253  162.5973 C.3     1  UNL1        0.0885
     17 C         145.5298  141.1594  163.8490 C.3     1  UNL1        0.0260
     18 C         145.0626  142.4620  164.4275 C.3     1  UNL1        0.0309
     19 H         143.3864  141.0434  161.1028 H       1  UNL1        0.1482
     20 C         138.2032  139.5577  163.3120 C.3     1  UNL1        0.0439
     21 C         138.6892  139.6851  164.7254 C.ar    1  UNL1       -0.0178
     22 C         137.9516  138.9991  165.8369 C.ar    1  UNL1       -0.0040
     23 C         138.4376  139.1266  167.2502 C.ar    1  UNL1        0.0028
     24 C         139.6612  139.9400  167.5521 C.ar    1  UNL1        0.0369
     25 C         140.3988  140.6260  166.4407 C.ar    1  UNL1        0.1381
     26 C         139.9128  140.4985  165.0273 C.ar    1  UNL1        0.0327
     27 O         141.6224  141.4394  166.7426 O.3     1  UNL1       -0.4790
     28 C         141.7233  142.1901  168.0372 C.3     1  UNL1        0.1709
     29 C         142.9717  142.0961  168.8635 C.3     1  UNL1        0.0756
     30 C         143.0725  142.8468  170.1582 C.3     1  UNL1        0.1459
     31 O         141.9249  143.6916  170.6267 O.3     1  UNL1       -0.3535
     32 C         140.6765  143.7856  169.8005 C.3     1  UNL1        0.1459
     33 C         140.5757  143.0348  168.5057 C.3     1  UNL1        0.0756
     34 C         138.4719  138.3019  162.5369 C.3     1  UNL1        0.0474
     35 O         139.7061  138.9501  160.3444 O.co2   1  UNL1       -0.5492
     36 C         139.6781  138.2117  161.6498 C.2     1  UNL1        0.0507
     37 O         140.8564  137.3830  162.0682 O.co2   1  UNL1       -0.5492
@<TRIPOS>UNITY_ATOM_ATTR
35 1
charge -1
@<TRIPOS>BOND
     1    35    36   ar
     2    36    37   ar
     3    36    34    1
     4    20    34    1
     5    20     1    1
     6     1     2    1
     7     2     3    1
     8     3     4    1
     9     4     5    1
    10     5     7    1
    11     7     8    1
    12     8     9    1
    13     9    10   ar
    14    10    11   ar
    15    11    12   ar
    16    12    13   ar
    17    13    14   ar
    18    13    15    1
    19    15    16    1
    20    16    17    1
    21    17    18    1
    22     5     6    1
    23    20    21    1
    24    21    22   ar
    25    22    23   ar
    26    23    24   ar
    27    24    25   ar
    28    25    27    1
    29    27    28    1
    30    28    29    1
    31    29    30    1
    32    30    31    1
    33    31    32    1
    34    32    33    1
    35    25    26   ar
    36     6     2    1
    37    26    21   ar
    38    14     9   ar
    39    33    28    1
    40    18    12    1
    41    15    19    1
@<TRIPOS>MOLECULE
*****
 37 41 0 0 0
SMALL
GASTEIGER

@<TRIPOS>ATOM
      1 C         138.4267  138.7566  163.3109 C.3     1  UNL1        0.0768
      2 N         138.1780  140.2315  163.1979 N.3     1  UNL1       -0.2724
      3 C         138.0472  141.0083  161.9214 C.3     1  UNL1        0.0721
      4 C         137.8047  142.4455  162.2761 C.3     1  UNL1        0.0187
      5 C         137.7857  142.5568  163.7719 C.3     1  UNL1        0.0178
      6 C         138.0164  141.1885  164.3415 C.3     1  UNL1        0.0721
      7 C         137.5733  143.8155  164.5596 C.3     1  UNL1        0.0077
      8 C         138.7528  144.5883  165.0709 C.3     1  UNL1        0.0459
      9 C         140.1351  144.0201  164.9412 C.ar    1  UNL1        0.0603
     10 C         140.6798  143.1210  166.0111 C.ar    1  UNL1        0.0145
     11 C         142.0620  142.5529  165.8815 C.ar    1  UNL1       -0.0003
     12 C         142.8995  142.8839  164.6818 C.ar    1  UNL1        0.0092
     13 C         142.3547  143.7830  163.6118 C.ar    1  UNL1        0.1240
     14 N         140.9725  144.3512  163.7416 N.ar    1  UNL1       -0.2356
     15 N         143.1921  144.1141  162.4122 N.pl3   1  UNL1       -0.3184
     16 C         144.5742  143.5460  162.2825 C.3     1  UNL1        0.0885
     17 C         145.1190  142.6468  163.3525 C.3     1  UNL1        0.0260
     18 C         144.2816  142.3158  164.5521 C.3     1  UNL1        0.0309
     19 H         142.8346  144.7042  161.7100 H       1  UNL1        0.1482
     20 C         139.2403  138.2183  164.4504 C.3     1  UNL1        0.0439
     21 C         140.7278  138.4112  164.4668 C.ar    1  UNL1       -0.0178
     22 C         141.4104  138.8734  165.7199 C.ar    1  UNL1       -0.0040
     23 C         142.8978  139.0664  165.7362 C.ar    1  UNL1        0.0028
     24 C         143.7027  138.7971  164.4994 C.ar    1  UNL1        0.0369
     25 C         143.0201  138.3349  163.2463 C.ar    1  UNL1        0.1381
     26 C         141.5327  138.1419  163.2299 C.ar    1  UNL1        0.0327
     27 O         143.8250  138.0656  162.0095 O.3     1  UNL1       -0.4790
     28 C         143.5388  138.8254  160.7483 C.3     1  UNL1        0.1709
     29 C         142.9361  138.1213  159.5689 C.3     1  UNL1        0.0756
     30 C         142.6499  138.8812  158.3076 C.3     1  UNL1        0.1459
     31 O         142.9664  140.3452  158.2258 O.3     1  UNL1       -0.3535
     32 C         143.5690  141.0492  159.4052 C.3     1  UNL1        0.1459
     33 C         143.8553  140.2893  160.6665 C.3     1  UNL1        0.0756
     34 C         138.5664  137.4871  165.5734 C.3     1  UNL1        0.0474
     35 O         136.7887  137.7181  167.4540 O.co2   1  UNL1       -0.5492
     36 C         137.9860  138.2527  166.7254 C.2     1  UNL1        0.0507
     37 O         138.6028  139.5528  167.1487 O.co2   1  UNL1       -0.5492
@<TRIPOS>UNITY_ATOM_ATTR
35 1
charge -1
@<TRIPOS>BOND
     1    35    36   ar
     2    36    37   ar
     3    36    34    1
     4    20    34    1
     5    20     1    1
     6     1     2    1
     7     2     3    1
     8     3     4    1
     9     4     5    1
    10     5     7    1
    11     7     8    1
    12     8     9    1
    13     9    10   ar
    14    10    11   ar
    15    11    12   ar
    16    12    13   ar
    17    13    14   ar
    18    13    15    1
    19    15    16    1
    20    16    17    1
    21    17    18    1
    22     5     6    1
    23    20    21    1
    24    21    22   ar
    25    22    23   ar
    26    23    24   ar
    27    24    25   ar
    28    25    27    1
    29    27    28    1
    30    28    29    1
    31    29    30    1
    32    30    31    1
    33    31    32    1
    34    32    33    1
    35    25    26   ar
    36     6     2    1
    37    26    21   ar
    38    14     9   ar
    39    33    28    1
    40    18    12    1
    41    15    19    1
@<TRIPOS>MOLECULE
*****
 37 41 0 0 0
SMALL
GASTEIGER

@<TRIPOS>ATOM
      1 C         139.2767  142.2294  165.4710 C.3     1  UNL1        0.0768
      2 N         140.1212  143.2018  164.7021 N.3     1  UNL1       -0.2724
      3 C         139.6332  144.1550  163.6517 C.3     1  UNL1        0.0721
      4 C         140.8123  144.9341  163.1490 C.3     1  UNL1        0.0187
      5 C         142.0290  144.4625  163.8888 C.3     1  UNL1        0.0178
      6 C         141.6018  143.3919  164.8486 C.3     1  UNL1        0.0721
      7 C         143.4273  144.9720  163.7015 C.3     1  UNL1        0.0077
      8 C         144.3348  144.3213  162.7001 C.3     1  UNL1        0.0459
      9 C         144.2635  142.8400  162.4746 C.ar    1  UNL1        0.0603
     10 C         144.9060  141.9009  163.4520 C.ar    1  UNL1        0.0145
     11 C         144.8348  140.4196  163.2266 C.ar    1  UNL1       -0.0003
     12 C         144.1211  139.8775  162.0238 C.ar    1  UNL1        0.0092
     13 C         143.4787  140.8166  161.0464 C.ar    1  UNL1        0.1240
     14 N         143.5499  142.2979  161.2718 N.ar    1  UNL1       -0.2356
     15 N         142.7650  140.2745  159.8436 N.pl3   1  UNL1       -0.3184
     16 C         142.6938  138.7933  159.6182 C.3     1  UNL1        0.0885
     17 C         143.3362  137.8541  160.5956 C.3     1  UNL1        0.0260
     18 C         144.0499  138.3962  161.7984 C.3     1  UNL1        0.0309
     19 H         142.3434  140.8909  159.2020 H       1  UNL1        0.1482
     20 C         139.3085  140.7704  165.1239 C.3     1  UNL1        0.0439
     21 C         140.5237  139.9502  165.4412 C.ar    1  UNL1       -0.0178
     22 C         141.0416  138.9590  164.4416 C.ar    1  UNL1       -0.0040
     23 C         142.2567  138.1389  164.7589 C.ar    1  UNL1        0.0028
     24 C         142.9541  138.3100  166.0759 C.ar    1  UNL1        0.0369
     25 C         142.4362  139.3012  167.0756 C.ar    1  UNL1        0.1381
     26 C         141.2210  140.1213  166.7582 C.ar    1  UNL1        0.0327
     27 O         143.1336  139.4723  168.3926 O.3     1  UNL1       -0.4790
     28 C         142.6503  140.5037  169.3686 C.3     1  UNL1        0.1709
     29 C         141.5376  140.1738  170.3189 C.3     1  UNL1        0.0756
     30 C         141.0543  141.2052  171.2950 C.3     1  UNL1        0.1459
     31 O         141.6838  142.5665  171.3207 O.3     1  UNL1       -0.3535
     32 C         142.7964  142.8964  170.3704 C.3     1  UNL1        0.1459
     33 C         143.2797  141.8650  169.3943 C.3     1  UNL1        0.0756
     34 C         138.1251  140.1317  164.4594 C.3     1  UNL1        0.0474
     35 O         137.0542  141.7833  162.7637 O.co2   1  UNL1       -0.5492
     36 C         137.7700  140.4961  163.0483 C.2     1  UNL1        0.0507
     37 O         138.1305  139.5735  161.9220 O.co2   1  UNL1       -0.5492
@<TRIPOS>UNITY_ATOM_ATTR
35 1
charge -1
@<TRIPOS>BOND
     1    35    36   ar
     2    36    37   ar
     3    36    34    1
     4    20    34    1
     5    20     1    1
     6     1     2    1
     7     2     3    1
     8     3     4    1
     9     4     5    1
    10     5     7    1
    11     7     8    1
    12     8     9    1
    13     9    10   ar
    14    10    11   ar
    15    11    12   ar
    16    12    13   ar
    17    13    14   ar
    18    13    15    1
    19    15    16    1
    20    16    17    1
    21    17    18    1
    22     5     6    1
    23    20    21    1
    24    21    22   ar
    25    22    23   ar
    26    23    24   ar
    27    24    25   ar
    28    25    27    1
    29    27    28    1
    30    28    29    1
    31    29    30    1
    32    30    31    1
    33    31    32    1
    34    32    33    1
    35    25    26   ar
    36     6     2    1
    37    26    21   ar
    38    14     9   ar
    39    33    28    1
    40    18    12    1
    41    15    19    1
@<TRIPOS>MOLECULE
*****
 37 41 0 0 0
SMALL
GASTEIGER

@<TRIPOS>ATOM
      1 C         138.8857  143.8714  164.3223 C.3     1  UNL1        0.0768
      2 N         138.5560  142.4179  164.1534 N.3     1  UNL1       -0.2724
      3 C         137.7811  141.8155  163.0190 C.3     1  UNL1        0.0721
      4 C         137.6896  140.3368  163.2538 C.3     1  UNL1        0.0187
      5 C         138.4079  140.0253  164.5332 C.3     1  UNL1        0.0178
      6 C         138.9434  141.3114  165.0892 C.3     1  UNL1        0.0721
      7 C         138.5634  138.6662  165.1485 C.3     1  UNL1        0.0077
      8 C         139.7651  137.8292  164.8244 C.3     1  UNL1        0.0459
      9 C         141.0947  138.4839  164.5926 C.ar    1  UNL1        0.0603
     10 C         142.2486  138.1808  165.5019 C.ar    1  UNL1        0.0145
     11 C         143.5781  138.8354  165.2702 C.ar    1  UNL1       -0.0003
     12 C         143.7539  139.7933  164.1292 C.ar    1  UNL1        0.0092
     13 C         142.6000  140.0964  163.2200 C.ar    1  UNL1        0.1240
     14 N         141.2704  139.4417  163.4517 N.ar    1  UNL1       -0.2356
     15 N         142.7756  141.0542  162.0791 N.pl3   1  UNL1       -0.3184
     16 C         144.1052  141.7089  161.8474 C.3     1  UNL1        0.0885
     17 C         145.2591  141.4057  162.7566 C.3     1  UNL1        0.0260
     18 C         145.0834  140.4479  163.8975 C.3     1  UNL1        0.0309
     19 H         142.0183  141.2532  161.4823 H       1  UNL1        0.1482
     20 C         140.1802  144.4134  163.7925 C.3     1  UNL1        0.0439
     21 C         141.4760  144.0317  164.4448 C.ar    1  UNL1       -0.0178
     22 C         142.7617  144.6438  163.9736 C.ar    1  UNL1       -0.0040
     23 C         144.0574  144.2621  164.6258 C.ar    1  UNL1        0.0028
     24 C         144.0674  143.2683  165.7493 C.ar    1  UNL1        0.0369
     25 C         142.7817  142.6561  166.2205 C.ar    1  UNL1        0.1381
     26 C         141.4860  143.0378  165.5683 C.ar    1  UNL1        0.0327
     27 O         142.7916  141.6622  167.3440 O.3     1  UNL1       -0.4790
     28 C         141.6241  141.5790  168.2820 C.3     1  UNL1        0.1709
     29 C         140.7111  140.3897  168.2394 C.3     1  UNL1        0.0756
     30 C         139.5435  140.3065  169.1775 C.3     1  UNL1        0.1459
     31 O         139.2891  141.4127  170.1582 O.3     1  UNL1       -0.3535
     32 C         140.2021  142.6020  170.2007 C.3     1  UNL1        0.1459
     33 C         141.3697  142.6852  169.2626 C.3     1  UNL1        0.0756
     34 C         140.1789  145.3369  162.6106 C.3     1  UNL1        0.0474
     35 O         140.7641  143.3864  160.9972 O.co2   1  UNL1       -0.5492
     36 C         140.2470  144.7766  161.2209 C.2     1  UNL1        0.0507
     37 O         139.7979  145.6065  160.0548 O.co2   1  UNL1       -0.5492
@<TRIPOS>UNITY_ATOM_ATTR
35 1
charge -1
@<TRIPOS>BOND
     1    35    36   ar
     2    36    37   ar
     3    36    34    1
     4    20    34    1
     5    20     1    1
     6     1     2    1
     7     2     3    1
     8     3     4    1
     9     4     5    1
    10     5     7    1
    11     7     8    1
    12     8     9    1
    13     9    10   ar
    14    10    11   ar
    15    11    12   ar
    16    12    13   ar
    17    13    14   ar
    18    13    15    1
    19    15    16    1
    20    16    17    1
    21    17    18    1
    22     5     6    1
    23    20    21    1
    24    21    22   ar
    25    22    23   ar
    26    23    24   ar
    27    24    25   ar
    28    25    27    1
    29    27    28    1
    30    28    29    1
    31    29    30    1
    32    30    31    1
    33    31    32    1
    34    32    33    1
    35    25    26   ar
    36     6     2    1
    37    26    21   ar
    38    14     9   ar
    39    33    28    1
    40    18    12    1
    41    15    19    1
