@<TRIPOS>MOLECULE
*****
 25 27 0 0 0
SMALL
GASTEIGER

@<TRIPOS>ATOM
      1 C         143.7506  141.4910  163.0866 C.ar    1  UNL1        0.2424
      2 C         145.0183  140.7727  163.4427 C.ar    1  UNL1        0.0641
      3 C         144.9890  139.6451  164.4315 C.ar    1  UNL1        0.0674
      4 C         143.6920  139.2359  165.0641 C.ar    1  UNL1        0.2807
      5 O         143.6627  138.1083  166.0529 O.2     1  UNL1       -0.2651
      6 N         142.4242  139.9542  164.7080 N.ar    1  UNL1       -0.1916
      7 N         142.4535  141.0818  163.7192 N.ar    1  UNL1       -0.1248
      8 C         141.1272  139.5450  165.3406 C.ar    1  UNL1        0.0861
      9 C         140.2252  138.5724  164.6404 C.ar    1  UNL1        0.0201
     10 C         138.9282  138.1631  165.2730 C.ar    1  UNL1        0.0129
     11 C         138.5331  138.7265  166.6060 C.ar    1  UNL1        0.0578
     12 CL        137.2361  138.3173  167.2386 Cl      1  UNL1       -0.0822
     13 C         139.4352  139.6992  167.3062 C.ar    1  UNL1        0.0129
     14 C         140.7323  140.1084  166.6735 C.ar    1  UNL1        0.0201
     15 O         143.7799  142.6186  162.0978 O.3     1  UNL1       -0.4592
     16 C         144.2345  143.9818  162.5281 C.3     1  UNL1        0.2086
     17 C         143.5902  144.6500  163.7064 C.3     1  UNL1        0.0647
     18 C         142.1876  145.1708  163.5989 C.3     1  UNL1        0.0759
     19 C         137.5515  141.3675  163.8028 C.3     1  UNL1        0.0001
     20 C         138.7105  142.3183  163.7518 C.3     1  UNL1        0.0028
     21 C         139.2852  142.8692  165.0231 C.3     1  UNL1        0.0174
     22 C         140.4442  143.8200  164.9722 C.3     1  UNL1        0.0721
     23 N         141.0286  144.2199  163.6499 N.3     1  UNL1       -0.2726
     24 C         140.4539  143.6691  162.3786 C.3     1  UNL1        0.0721
     25 C         139.2949  142.7183  162.4296 C.3     1  UNL1        0.0174
@<TRIPOS>BOND
     1    19    20    1
     2    20    21    1
     3    21    22    1
     4    22    23    1
     5    23    18    1
     6    18    17    1
     7    17    16    1
     8    16    15    1
     9    15     1    1
    10     1     2   ar
    11     2     3   ar
    12     3     4   ar
    13     4     5    2
    14     4     6   ar
    15     6     8    1
    16     8     9   ar
    17     9    10   ar
    18    10    11   ar
    19    11    12    1
    20    11    13   ar
    21    13    14   ar
    22     6     7   ar
    23    23    24    1
    24    24    25    1
    25    25    20    1
    26     7     1   ar
    27    14     8   ar
@<TRIPOS>MOLECULE
*****
 25 27 0 0 0
SMALL
GASTEIGER

@<TRIPOS>ATOM
      1 C         137.9727  140.4363  163.1808 C.ar    1  UNL1        0.2424
      2 C         137.9885  139.1352  162.4345 C.ar    1  UNL1        0.0641
      3 C         138.7929  137.9814  162.9557 C.ar    1  UNL1        0.0674
      4 C         139.5816  138.1286  164.2230 C.ar    1  UNL1        0.2807
      5 O         140.3860  136.9748  164.7441 O.2     1  UNL1       -0.2651
      6 N         139.5658  139.4297  164.9694 N.ar    1  UNL1       -0.1916
      7 N         138.7614  140.5836  164.4483 N.ar    1  UNL1       -0.1248
      8 C         140.3545  139.5769  166.2368 C.ar    1  UNL1        0.0861
      9 C         141.8419  139.3836  166.2213 C.ar    1  UNL1        0.0201
     10 C         142.6305  139.5308  167.4887 C.ar    1  UNL1        0.0129
     11 C         141.9318  139.8714  168.7716 C.ar    1  UNL1        0.0578
     12 CL        142.7204  140.0186  170.0390 Cl      1  UNL1       -0.0822
     13 C         140.4444  140.0648  168.7871 C.ar    1  UNL1        0.0129
     14 C         139.6557  139.9175  167.5196 C.ar    1  UNL1        0.0201
     15 O         137.1682  141.5901  162.6597 O.3     1  UNL1       -0.4592
     16 C         137.8131  142.9321  162.4768 C.3     1  UNL1        0.2086
     17 C         137.8398  143.9123  163.6120 C.3     1  UNL1        0.0647
     18 C         138.9364  144.9323  163.6964 C.3     1  UNL1        0.0759
     19 C         144.5324  143.2187  165.0188 C.3     1  UNL1        0.0001
     20 C         143.1334  143.6471  164.6882 C.3     1  UNL1        0.0028
     21 C         142.9018  144.7759  163.7280 C.3     1  UNL1        0.0174
     22 C         141.5028  145.2043  163.3974 C.3     1  UNL1        0.0721
     23 N         140.3354  144.5039  164.0270 N.3     1  UNL1       -0.2726
     24 C         140.5669  143.3751  164.9873 C.3     1  UNL1        0.0721
     25 C         141.9659  142.9467  165.3179 C.3     1  UNL1        0.0174
@<TRIPOS>BOND
     1    19    20    1
     2    20    21    1
     3    21    22    1
     4    22    23    1
     5    23    18    1
     6    18    17    1
     7    17    16    1
     8    16    15    1
     9    15     1    1
    10     1     2   ar
    11     2     3   ar
    12     3     4   ar
    13     4     5    2
    14     4     6   ar
    15     6     8    1
    16     8     9   ar
    17     9    10   ar
    18    10    11   ar
    19    11    12    1
    20    11    13   ar
    21    13    14   ar
    22     6     7   ar
    23    23    24    1
    24    24    25    1
    25    25    20    1
    26     7     1   ar
    27    14     8   ar
@<TRIPOS>MOLECULE
*****
 25 27 0 0 0
SMALL
GASTEIGER

@<TRIPOS>ATOM
      1 C         140.6356  143.9323  162.9426 C.ar    1  UNL1        0.2424
      2 C         141.4819  145.1641  163.0709 C.ar    1  UNL1        0.0641
      3 C         142.7695  145.1127  163.8386 C.ar    1  UNL1        0.0674
      4 C         143.2108  143.8296  164.4780 C.ar    1  UNL1        0.2807
      5 O         144.4985  143.7783  165.2458 O.2     1  UNL1       -0.2651
      6 N         142.3645  142.5978  164.3497 N.ar    1  UNL1       -0.1916
      7 N         141.0769  142.6491  163.5820 N.ar    1  UNL1       -0.1248
      8 C         142.8058  141.3147  164.9891 C.ar    1  UNL1        0.0861
      9 C         142.2904  140.9369  166.3462 C.ar    1  UNL1        0.0201
     10 C         142.7317  139.6538  166.9856 C.ar    1  UNL1        0.0129
     11 C         143.6885  138.7485  166.2680 C.ar    1  UNL1        0.0578
     12 CL        144.1298  137.4654  166.9074 Cl      1  UNL1       -0.0822
     13 C         144.2039  139.1262  164.9109 C.ar    1  UNL1        0.0129
     14 C         143.7625  140.4094  164.2715 C.ar    1  UNL1        0.0201
     15 O         139.3480  143.9836  162.1748 O.3     1  UNL1       -0.4592
     16 C         138.0436  144.1054  162.9054 C.3     1  UNL1        0.2086
     17 C         137.5755  142.9921  163.7951 C.3     1  UNL1        0.0647
     18 C         137.3292  141.6277  163.2227 C.3     1  UNL1        0.0759
     19 C         141.0600  137.1115  164.5208 C.3     1  UNL1        0.0001
     20 C         140.1273  138.2405  164.1962 C.3     1  UNL1        0.0028
     21 C         140.0376  138.7591  162.7916 C.3     1  UNL1        0.0174
     22 C         139.1048  139.8881  162.4671 C.3     1  UNL1        0.0721
     23 N         138.2619  140.4986  163.5472 N.3     1  UNL1       -0.2726
     24 C         138.3517  139.9801  164.9518 C.3     1  UNL1        0.0721
     25 C         139.2844  138.8511  165.2763 C.3     1  UNL1        0.0174
@<TRIPOS>BOND
     1    19    20    1
     2    20    21    1
     3    21    22    1
     4    22    23    1
     5    23    18    1
     6    18    17    1
     7    17    16    1
     8    16    15    1
     9    15     1    1
    10     1     2   ar
    11     2     3   ar
    12     3     4   ar
    13     4     5    2
    14     4     6   ar
    15     6     8    1
    16     8     9   ar
    17     9    10   ar
    18    10    11   ar
    19    11    12    1
    20    11    13   ar
    21    13    14   ar
    22     6     7   ar
    23    23    24    1
    24    24    25    1
    25    25    20    1
    26     7     1   ar
    27    14     8   ar
@<TRIPOS>MOLECULE
*****
 25 27 0 0 0
SMALL
GASTEIGER

@<TRIPOS>ATOM
      1 C         139.2786  138.3439  163.6699 C.ar    1  UNL1        0.2424
      2 C         140.5540  137.6005  163.4036 C.ar    1  UNL1        0.0641
      3 C         141.7327  137.7836  164.3130 C.ar    1  UNL1        0.0674
      4 C         141.6361  138.7099  165.4888 C.ar    1  UNL1        0.2807
      5 O         142.8148  138.8929  166.3983 O.2     1  UNL1       -0.2651
      6 N         140.3607  139.4533  165.7552 N.ar    1  UNL1       -0.1916
      7 N         139.1820  139.2702  164.8458 N.ar    1  UNL1       -0.1248
      8 C         140.2642  140.3796  166.9310 C.ar    1  UNL1        0.0861
      9 C         140.7192  141.8032  166.8036 C.ar    1  UNL1        0.0201
     10 C         140.6227  142.7295  167.9794 C.ar    1  UNL1        0.0129
     11 C         140.0710  142.2323  169.2827 C.ar    1  UNL1        0.0578
     12 CL        139.9744  143.1586  170.4585 Cl      1  UNL1       -0.0822
     13 C         139.6159  140.8086  169.4101 C.ar    1  UNL1        0.0129
     14 C         139.7125  139.8823  168.2342 C.ar    1  UNL1        0.0201
     15 O         138.0999  138.1608  162.7605 O.3     1  UNL1       -0.4592
     16 C         138.1843  138.5942  161.3269 C.3     1  UNL1        0.2086
     17 C         137.4352  139.8091  160.8653 C.3     1  UNL1        0.0647
     18 C         138.1441  141.1251  160.7411 C.3     1  UNL1        0.0759
     19 C         138.4771  144.8108  165.4639 C.3     1  UNL1        0.0001
     20 C         138.3939  143.8893  164.2832 C.3     1  UNL1        0.0028
     21 C         137.6279  142.6039  164.3876 C.3     1  UNL1        0.0174
     22 C         137.5446  141.6825  163.2069 C.3     1  UNL1        0.0721
     23 N         138.2273  142.0465  161.9218 N.3     1  UNL1       -0.2726
     24 C         138.9933  143.3319  161.8175 C.3     1  UNL1        0.0721
     25 C         139.0766  144.2533  162.9982 C.3     1  UNL1        0.0174
@<TRIPOS>BOND
     1    19    20    1
     2    20    21    1
     3    21    22    1
     4    22    23    1
     5    23    18    1
     6    18    17    1
     7    17    16    1
     8    16    15    1
     9    15     1    1
    10     1     2   ar
    11     2     3   ar
    12     3     4   ar
    13     4     5    2
    14     4     6   ar
    15     6     8    1
    16     8     9   ar
    17     9    10   ar
    18    10    11   ar
    19    11    12    1
    20    11    13   ar
    21    13    14   ar
    22     6     7   ar
    23    23    24    1
    24    24    25    1
    25    25    20    1
    26     7     1   ar
    27    14     8   ar
@<TRIPOS>MOLECULE
*****
 25 27 0 0 0
SMALL
GASTEIGER

@<TRIPOS>ATOM
      1 C         142.6312  143.9485  164.2177 C.ar    1  UNL1        0.2424
      2 C         141.8441  145.1368  163.7504 C.ar    1  UNL1        0.0641
      3 C         140.3457  145.1177  163.8180 C.ar    1  UNL1        0.0674
      4 C         139.6344  143.9102  164.3527 C.ar    1  UNL1        0.2807
      5 O         138.1361  143.8911  164.4203 O.2     1  UNL1       -0.2651
      6 N         140.4215  142.7218  164.8200 N.ar    1  UNL1       -0.1916
      7 N         141.9199  142.7409  164.7525 N.ar    1  UNL1       -0.1248
      8 C         139.7102  141.5143  165.3548 C.ar    1  UNL1        0.0861
      9 C         138.7331  140.7750  164.4895 C.ar    1  UNL1        0.0201
     10 C         138.0218  139.5676  165.0243 C.ar    1  UNL1        0.0129
     11 C         138.2876  139.0993  166.4244 C.ar    1  UNL1        0.0578
     12 CL        137.5763  137.8918  166.9591 Cl      1  UNL1       -0.0822
     13 C         139.2647  139.8386  167.2896 C.ar    1  UNL1        0.0129
     14 C         139.9760  141.0462  166.7548 C.ar    1  UNL1        0.0201
     15 O         144.1295  143.9676  164.1501 O.3     1  UNL1       -0.4592
     16 C         144.9198  142.8176  164.7005 C.3     1  UNL1        0.2086
     17 C         145.6352  141.8850  163.7686 C.3     1  UNL1        0.0647
     18 C         144.8571  141.0767  162.7730 C.3     1  UNL1        0.0759
     19 C         140.7100  137.1741  164.6625 C.3     1  UNL1        0.0001
     20 C         141.7468  138.1497  164.1901 C.3     1  UNL1        0.0028
     21 C         141.5642  138.8644  162.8840 C.3     1  UNL1        0.0174
     22 C         142.6010  139.8400  162.4117 C.3     1  UNL1        0.0721
     23 N         143.8203  140.1011  163.2454 N.3     1  UNL1       -0.2726
     24 C         144.0028  139.3864  164.5515 C.3     1  UNL1        0.0721
     25 C         142.9661  138.4107  165.0238 C.3     1  UNL1        0.0174
@<TRIPOS>BOND
     1    19    20    1
     2    20    21    1
     3    21    22    1
     4    22    23    1
     5    23    18    1
     6    18    17    1
     7    17    16    1
     8    16    15    1
     9    15     1    1
    10     1     2   ar
    11     2     3   ar
    12     3     4   ar
    13     4     5    2
    14     4     6   ar
    15     6     8    1
    16     8     9   ar
    17     9    10   ar
    18    10    11   ar
    19    11    12    1
    20    11    13   ar
    21    13    14   ar
    22     6     7   ar
    23    23    24    1
    24    24    25    1
    25    25    20    1
    26     7     1   ar
    27    14     8   ar
@<TRIPOS>MOLECULE
*****
 25 27 0 0 0
SMALL
GASTEIGER

@<TRIPOS>ATOM
      1 C         142.7626  139.1836  164.6563 C.ar    1  UNL1        0.2424
      2 C         144.2568  139.1193  164.5417 C.ar    1  UNL1        0.0641
      3 C         145.0155  140.2783  163.9663 C.ar    1  UNL1        0.0674
      4 C         144.2800  141.5017  163.5056 C.ar    1  UNL1        0.2807
      5 O         145.0387  142.6607  162.9302 O.2     1  UNL1       -0.2651
      6 N         142.7857  141.5661  163.6202 N.ar    1  UNL1       -0.1916
      7 N         142.0270  140.4070  164.1955 N.ar    1  UNL1       -0.1248
      8 C         142.0502  142.7894  163.1594 C.ar    1  UNL1        0.0861
      9 C         141.9188  143.9734  164.0711 C.ar    1  UNL1        0.0201
     10 C         141.1833  145.1967  163.6103 C.ar    1  UNL1        0.0129
     11 C         140.5791  145.2362  162.2379 C.ar    1  UNL1        0.0578
     12 CL        139.8436  146.4596  161.7771 Cl      1  UNL1       -0.0822
     13 C         140.7105  144.0523  161.3263 C.ar    1  UNL1        0.0129
     14 C         141.4460  142.8289  161.7871 C.ar    1  UNL1        0.0201
     15 O         142.0039  138.0246  165.2316 O.3     1  UNL1       -0.4592
     16 C         141.2321  137.1101  164.3271 C.3     1  UNL1        0.2086
     17 C         139.9519  137.5791  163.7016 C.3     1  UNL1        0.0647
     18 C         138.9281  138.2928  164.5337 C.3     1  UNL1        0.0759
     19 C         137.5651  144.0159  163.3557 C.3     1  UNL1        0.0001
     20 C         137.9058  142.5851  163.6502 C.3     1  UNL1        0.0028
     21 C         137.6383  141.5240  162.6243 C.3     1  UNL1        0.0174
     22 C         137.9791  140.0932  162.9188 C.3     1  UNL1        0.0721
     23 N         138.5873  139.7236  164.2392 N.3     1  UNL1       -0.2726
     24 C         138.8548  140.7847  165.2650 C.3     1  UNL1        0.0721
     25 C         138.5141  142.2155  164.9705 C.3     1  UNL1        0.0174
@<TRIPOS>BOND
     1    19    20    1
     2    20    21    1
     3    21    22    1
     4    22    23    1
     5    23    18    1
     6    18    17    1
     7    17    16    1
     8    16    15    1
     9    15     1    1
    10     1     2   ar
    11     2     3   ar
    12     3     4   ar
    13     4     5    2
    14     4     6   ar
    15     6     8    1
    16     8     9   ar
    17     9    10   ar
    18    10    11   ar
    19    11    12    1
    20    11    13   ar
    21    13    14   ar
    22     6     7   ar
    23    23    24    1
    24    24    25    1
    25    25    20    1
    26     7     1   ar
    27    14     8   ar
@<TRIPOS>MOLECULE
*****
 25 27 0 0 0
SMALL
GASTEIGER

@<TRIPOS>ATOM
      1 C         138.2600  140.6127  163.6170 C.ar    1  UNL1        0.2424
      2 C         137.4714  141.8372  163.2580 C.ar    1  UNL1        0.0641
      3 C         137.7552  143.1401  163.9448 C.ar    1  UNL1        0.0674
      4 C         138.8275  143.2187  164.9907 C.ar    1  UNL1        0.2807
      5 O         139.1113  144.5216  165.6776 O.2     1  UNL1       -0.2651
      6 N         139.6161  141.9942  165.3498 N.ar    1  UNL1       -0.1916
      7 N         139.3323  140.6912  164.6630 N.ar    1  UNL1       -0.1248
      8 C         140.6884  142.0727  166.3957 C.ar    1  UNL1        0.0861
      9 C         142.1110  142.3272  165.9938 C.ar    1  UNL1        0.0201
     10 C         143.1833  142.4057  167.0397 C.ar    1  UNL1        0.0129
     11 C         142.8330  142.2298  168.4876 C.ar    1  UNL1        0.0578
     12 CL        143.9053  142.3084  169.5335 Cl      1  UNL1       -0.0822
     13 C         141.4105  141.9754  168.8896 C.ar    1  UNL1        0.0129
     14 C         140.3381  141.8968  167.8436 C.ar    1  UNL1        0.0201
     15 O         137.9762  139.3098  162.9302 O.3     1  UNL1       -0.4592
     16 C         137.8848  139.2550  161.4339 C.3     1  UNL1        0.2086
     17 C         139.1351  139.1832  160.6083 C.3     1  UNL1        0.0647
     18 C         140.2051  138.1900  160.9524 C.3     1  UNL1        0.0759
     19 C         143.1410  138.6291  166.1666 C.3     1  UNL1        0.0001
     20 C         142.4071  138.5193  164.8631 C.3     1  UNL1        0.0028
     21 C         141.4402  137.3946  164.6391 C.3     1  UNL1        0.0174
     22 C         140.7063  137.2848  163.3356 C.3     1  UNL1        0.0721
     23 N         140.9391  138.2998  162.2560 N.3     1  UNL1       -0.2726
     24 C         141.9059  139.4245  162.4799 C.3     1  UNL1        0.0721
     25 C         142.6399  139.5343  163.7835 C.3     1  UNL1        0.0174
@<TRIPOS>BOND
     1    19    20    1
     2    20    21    1
     3    21    22    1
     4    22    23    1
     5    23    18    1
     6    18    17    1
     7    17    16    1
     8    16    15    1
     9    15     1    1
    10     1     2   ar
    11     2     3   ar
    12     3     4   ar
    13     4     5    2
    14     4     6   ar
    15     6     8    1
    16     8     9   ar
    17     9    10   ar
    18    10    11   ar
    19    11    12    1
    20    11    13   ar
    21    13    14   ar
    22     6     7   ar
    23    23    24    1
    24    24    25    1
    25    25    20    1
    26     7     1   ar
    27    14     8   ar
@<TRIPOS>MOLECULE
*****
 25 27 0 0 0
SMALL
GASTEIGER

@<TRIPOS>ATOM
      1 C         141.7674  140.3311  161.7498 C.ar    1  UNL1        0.2424
      2 C         143.1029  140.3515  161.0671 C.ar    1  UNL1        0.0641
      3 C         144.3613  140.3967  161.8822 C.ar    1  UNL1        0.0674
      4 C         144.2842  140.4214  163.3800 C.ar    1  UNL1        0.2807
      5 O         145.5426  140.4665  164.1951 O.2     1  UNL1       -0.2651
      6 N         142.9487  140.4010  164.0628 N.ar    1  UNL1       -0.1916
      7 N         141.6903  140.3558  163.2477 N.ar    1  UNL1       -0.1248
      8 C         142.8717  140.4257  165.5605 C.ar    1  UNL1        0.0861
      9 C         142.7761  141.7356  166.2851 C.ar    1  UNL1        0.0201
     10 C         142.6990  141.7603  167.7829 C.ar    1  UNL1        0.0129
     11 C         142.7176  140.4750  168.5562 C.ar    1  UNL1        0.0578
     12 CL        142.6405  140.4997  170.0540 Cl      1  UNL1       -0.0822
     13 C         142.8132  139.1651  167.8316 C.ar    1  UNL1        0.0129
     14 C         142.8902  139.1405  166.3337 C.ar    1  UNL1        0.0201
     15 O         140.5090  140.2860  160.9347 O.3     1  UNL1       -0.4592
     16 C         140.1282  139.0278  160.2122 C.3     1  UNL1        0.2086
     17 C         139.0754  138.1245  160.7830 C.3     1  UNL1        0.0647
     18 C         138.0159  138.6841  161.6854 C.3     1  UNL1        0.0759
     19 C         139.2762  139.8368  167.4371 C.3     1  UNL1        0.0001
     20 C         138.9611  139.5487  165.9992 C.3     1  UNL1        0.0028
     21 C         139.2680  138.1995  165.4200 C.3     1  UNL1        0.0174
     22 C         138.9529  137.9113  163.9820 C.3     1  UNL1        0.0721
     23 N         138.3310  138.9723  163.1233 N.3     1  UNL1       -0.2726
     24 C         138.0241  140.3215  163.7025 C.3     1  UNL1        0.0721
     25 C         138.3392  140.6096  165.1405 C.3     1  UNL1        0.0174
@<TRIPOS>BOND
     1    19    20    1
     2    20    21    1
     3    21    22    1
     4    22    23    1
     5    23    18    1
     6    18    17    1
     7    17    16    1
     8    16    15    1
     9    15     1    1
    10     1     2   ar
    11     2     3   ar
    12     3     4   ar
    13     4     5    2
    14     4     6   ar
    15     6     8    1
    16     8     9   ar
    17     9    10   ar
    18    10    11   ar
    19    11    12    1
    20    11    13   ar
    21    13    14   ar
    22     6     7   ar
    23    23    24    1
    24    24    25    1
    25    25    20    1
    26     7     1   ar
    27    14     8   ar
@<TRIPOS>MOLECULE
*****
 25 27 0 0 0
SMALL
GASTEIGER

@<TRIPOS>ATOM
      1 C         141.4921  137.9107  163.0690 C.ar    1  UNL1        0.2424
      2 C         142.6908  137.9184  162.1673 C.ar    1  UNL1        0.0641
      3 C         143.9278  138.6650  162.5704 C.ar    1  UNL1        0.0674
      4 C         143.9661  139.4039  163.8752 C.ar    1  UNL1        0.2807
      5 O         145.2031  140.1505  164.2783 O.2     1  UNL1       -0.2651
      6 N         142.7674  139.3962  164.7770 N.ar    1  UNL1       -0.1916
      7 N         141.5304  138.6496  164.3739 N.ar    1  UNL1       -0.1248
      8 C         142.8057  140.1351  166.0818 C.ar    1  UNL1        0.0861
      9 C         142.9490  141.6282  166.0943 C.ar    1  UNL1        0.0201
     10 C         142.9873  142.3670  167.3991 C.ar    1  UNL1        0.0129
     11 C         142.8823  141.6128  168.6915 C.ar    1  UNL1        0.0578
     12 CL        142.9207  142.3517  169.9963 Cl      1  UNL1       -0.0822
     13 C         142.7390  140.1197  168.6790 C.ar    1  UNL1        0.0129
     14 C         142.7007  139.3809  167.3741 C.ar    1  UNL1        0.0201
     15 O         140.2551  137.1642  162.6659 O.3     1  UNL1       -0.4592
     16 C         138.9032  137.6949  163.0409 C.3     1  UNL1        0.2086
     17 C         138.1724  138.6132  162.1068 C.3     1  UNL1        0.0647
     18 C         138.8062  139.9017  161.6734 C.3     1  UNL1        0.0759
     19 C         138.8744  144.6108  165.3909 C.3     1  UNL1        0.0001
     20 C         138.8574  143.4335  164.4615 C.3     1  UNL1        0.0028
     21 C         137.5524  142.8069  164.0687 C.3     1  UNL1        0.0174
     22 C         137.5354  141.6297  163.1393 C.3     1  UNL1        0.0721
     23 N         138.8233  141.0790  162.6028 N.3     1  UNL1       -0.2726
     24 C         140.1283  141.7056  162.9956 C.3     1  UNL1        0.0721
     25 C         140.1453  142.8828  163.9250 C.3     1  UNL1        0.0174
@<TRIPOS>BOND
     1    19    20    1
     2    20    21    1
     3    21    22    1
     4    22    23    1
     5    23    18    1
     6    18    17    1
     7    17    16    1
     8    16    15    1
     9    15     1    1
    10     1     2   ar
    11     2     3   ar
    12     3     4   ar
    13     4     5    2
    14     4     6   ar
    15     6     8    1
    16     8     9   ar
    17     9    10   ar
    18    10    11   ar
    19    11    12    1
    20    11    13   ar
    21    13    14   ar
    22     6     7   ar
    23    23    24    1
    24    24    25    1
    25    25    20    1
    26     7     1   ar
    27    14     8   ar
