@<TRIPOS>MOLECULE
*****
 35 39 0 0 0
SMALL
GASTEIGER

@<TRIPOS>ATOM
      1 N         142.7071  140.2531  167.3309 N.3     1  UNL1       -0.2724
      2 C         143.0441  138.7953  167.4373 C.3     1  UNL1        0.0721
      3 C         143.7265  138.3833  166.1667 C.3     1  UNL1        0.0187
      4 C         143.8112  139.5863  165.2748 C.3     1  UNL1        0.0178
      5 C         143.1812  140.7420  165.9944 C.3     1  UNL1        0.0721
      6 C         142.0172  141.0772  168.3772 C.3     1  UNL1        0.0768
      7 C         140.5188  141.1098  168.4387 C.3     1  UNL1        0.0438
      8 C         139.7127  140.9333  167.1860 C.ar    1  UNL1       -0.0211
      9 C         139.0134  139.6330  166.9211 C.ar    1  UNL1       -0.0042
     10 C         138.2073  139.4565  165.6685 C.ar    1  UNL1       -0.0006
     11 C         138.1006  140.5803  164.6807 C.ar    1  UNL1       -0.0042
     12 C         138.7999  141.8806  164.9456 C.ar    1  UNL1       -0.0203
     13 C         139.6059  142.0571  166.1982 C.ar    1  UNL1       -0.0084
     14 C         138.6931  143.0044  163.9578 C.3     1  UNL1        0.0544
     15 C         139.4664  144.2891  163.9970 C.3     1  UNL1        0.0389
     16 C         139.0456  145.1195  162.8209 C.3     1  UNL1        0.1426
     17 O         138.0122  144.3480  162.0548 O.3     1  UNL1       -0.3534
     18 C         137.7944  143.0407  162.7575 C.3     1  UNL1        0.1465
     19 C         139.8265  141.3189  169.7529 C.3     1  UNL1        0.0474
     20 O         140.1055  143.8746  170.1279 O.co2   1  UNL1       -0.5492
     21 C         140.2206  142.4672  170.6339 C.2     1  UNL1        0.0507
     22 O         140.7298  142.2080  172.0208 O.co2   1  UNL1       -0.5492
     23 C         144.4191  139.6267  163.9042 C.3     1  UNL1        0.0077
     24 C         143.8934  138.7287  162.8239 C.3     1  UNL1        0.0459
     25 C         142.4191  138.6618  162.5555 C.ar    1  UNL1        0.0603
     26 C         141.5828  137.6090  163.2205 C.ar    1  UNL1        0.0145
     27 C         140.1085  137.5420  162.9522 C.ar    1  UNL1       -0.0003
     28 C         139.4705  138.5279  162.0189 C.ar    1  UNL1        0.0092
     29 C         140.3067  139.5808  161.3540 C.ar    1  UNL1        0.1240
     30 N         141.7811  139.6477  161.6223 N.ar    1  UNL1       -0.2356
     31 N         139.6687  140.5667  160.4208 N.pl3   1  UNL1       -0.3184
     32 C         138.1945  140.4998  160.1525 C.3     1  UNL1        0.0885
     33 C         137.3582  139.4469  160.8175 C.3     1  UNL1        0.0260
     34 C         137.9962  138.4610  161.7507 C.3     1  UNL1        0.0309
     35 H         140.2176  141.2577  159.9844 H       1  UNL1        0.1482
@<TRIPOS>UNITY_ATOM_ATTR
20 1
charge -1
@<TRIPOS>BOND
     1    20    21   ar
     2    21    22   ar
     3    21    19    1
     4     7    19    1
     5     7     6    1
     6     6     1    1
     7     1     2    1
     8     2     3    1
     9     3     4    1
    10     4    23    1
    11    23    24    1
    12    24    25    1
    13    25    26   ar
    14    26    27   ar
    15    27    28   ar
    16    28    29   ar
    17    29    30   ar
    18    29    31    1
    19    31    32    1
    20    32    33    1
    21    33    34    1
    22     4     5    1
    23     7     8    1
    24     8     9   ar
    25     9    10   ar
    26    10    11   ar
    27    11    12   ar
    28    12    14    1
    29    14    15    1
    30    15    16    1
    31    16    17    1
    32    17    18    1
    33    12    13   ar
    34     5     1    1
    35    13     8   ar
    36    30    25   ar
    37    18    14    1
    38    34    28    1
    39    31    35    1
@<TRIPOS>MOLECULE
*****
 35 39 0 0 0
SMALL
GASTEIGER

@<TRIPOS>ATOM
      1 N         141.2715  144.6708  163.4057 N.3     1  UNL1       -0.2724
      2 C         142.4206  145.4785  163.9325 C.3     1  UNL1        0.0721
      3 C         143.6722  144.9972  163.2603 C.3     1  UNL1        0.0187
      4 C         143.2967  143.8921  162.3182 C.3     1  UNL1        0.0178
      5 C         141.8130  143.6904  162.4080 C.3     1  UNL1        0.0721
      6 C         139.8335  144.8179  163.8063 C.3     1  UNL1        0.0768
      7 C         138.9909  143.5986  164.0374 C.3     1  UNL1        0.0438
      8 C         139.3679  142.6183  165.1083 C.ar    1  UNL1       -0.0211
      9 C         138.9861  141.1742  164.9714 C.ar    1  UNL1       -0.0042
     10 C         139.3632  140.1939  166.0424 C.ar    1  UNL1       -0.0006
     11 C         140.1220  140.6578  167.2503 C.ar    1  UNL1       -0.0042
     12 C         140.5038  142.1019  167.3872 C.ar    1  UNL1       -0.0203
     13 C         140.1267  143.0821  166.3163 C.ar    1  UNL1       -0.0084
     14 C         141.2626  142.5658  168.5951 C.3     1  UNL1        0.0544
     15 C         142.6841  142.2225  168.9288 C.3     1  UNL1        0.0389
     16 C         143.0332  142.8989  170.2213 C.3     1  UNL1        0.1426
     17 O         141.8274  143.6603  170.6865 O.3     1  UNL1       -0.3534
     18 C         140.7331  143.4544  169.6813 C.3     1  UNL1        0.1465
     19 C         137.7713  143.3596  163.1975 C.3     1  UNL1        0.0474
     20 O         138.5104  143.3903  160.7069 O.co2   1  UNL1       -0.5492
     21 C         137.8972  142.6702  161.8712 C.2     1  UNL1        0.0507
     22 O         137.4100  141.2609  161.7093 O.co2   1  UNL1       -0.5492
     23 C         144.2394  143.1235  161.4403 C.3     1  UNL1        0.0077
     24 C         144.9934  141.9514  161.9948 C.3     1  UNL1        0.0459
     25 C         144.2683  140.8924  162.7712 C.ar    1  UNL1        0.0603
     26 C         144.7893  140.4531  164.1075 C.ar    1  UNL1        0.0145
     27 C         144.0643  139.3942  164.8840 C.ar    1  UNL1       -0.0003
     28 C         142.8181  138.7745  164.3242 C.ar    1  UNL1        0.0092
     29 C         142.2971  139.2139  162.9880 C.ar    1  UNL1        0.1240
     30 N         143.0222  140.2728  162.2115 N.ar    1  UNL1       -0.2356
     31 N         141.0511  138.5943  162.4282 N.pl3   1  UNL1       -0.3184
     32 C         140.3260  137.5354  163.2047 C.3     1  UNL1        0.0885
     33 C         140.8470  137.0960  164.5409 C.3     1  UNL1        0.0260
     34 C         142.0931  137.7156  165.1007 C.3     1  UNL1        0.0309
     35 H         140.7091  138.8826  161.5512 H       1  UNL1        0.1482
@<TRIPOS>UNITY_ATOM_ATTR
20 1
charge -1
@<TRIPOS>BOND
     1    20    21   ar
     2    21    22   ar
     3    21    19    1
     4     7    19    1
     5     7     6    1
     6     6     1    1
     7     1     2    1
     8     2     3    1
     9     3     4    1
    10     4    23    1
    11    23    24    1
    12    24    25    1
    13    25    26   ar
    14    26    27   ar
    15    27    28   ar
    16    28    29   ar
    17    29    30   ar
    18    29    31    1
    19    31    32    1
    20    32    33    1
    21    33    34    1
    22     4     5    1
    23     7     8    1
    24     8     9   ar
    25     9    10   ar
    26    10    11   ar
    27    11    12   ar
    28    12    14    1
    29    14    15    1
    30    15    16    1
    31    16    17    1
    32    17    18    1
    33    12    13   ar
    34     5     1    1
    35    13     8   ar
    36    30    25   ar
    37    18    14    1
    38    34    28    1
    39    31    35    1
@<TRIPOS>MOLECULE
*****
 35 39 0 0 0
SMALL
GASTEIGER

@<TRIPOS>ATOM
      1 N         138.1981  141.1959  164.4091 N.3     1  UNL1       -0.2724
      2 C         138.2475  140.1294  165.4628 C.3     1  UNL1        0.0721
      3 C         138.5104  138.8182  164.7833 C.3     1  UNL1        0.0187
      4 C         138.6236  139.0744  163.3097 C.3     1  UNL1        0.0178
      5 C         138.4306  140.5438  163.0784 C.3     1  UNL1        0.0721
      6 C         137.9583  142.6577  164.6448 C.3     1  UNL1        0.0768
      7 C         139.1208  143.5919  164.8063 C.3     1  UNL1        0.0438
      8 C         140.3275  143.1599  165.5857 C.ar    1  UNL1       -0.0211
      9 C         141.6536  143.0204  164.8987 C.ar    1  UNL1       -0.0042
     10 C         142.8602  142.5884  165.6781 C.ar    1  UNL1       -0.0006
     11 C         142.7407  142.2961  167.1445 C.ar    1  UNL1       -0.0042
     12 C         141.4147  142.4356  167.8314 C.ar    1  UNL1       -0.0203
     13 C         140.2080  142.8676  167.0520 C.ar    1  UNL1       -0.0084
     14 C         141.2952  142.1433  169.2978 C.3     1  UNL1        0.0544
     15 C         142.1210  141.1580  170.0706 C.3     1  UNL1        0.0389
     16 C         141.6652  141.1906  171.4992 C.3     1  UNL1        0.1426
     17 O         140.5575  142.1961  171.6095 O.3     1  UNL1       -0.3534
     18 C         140.3289  142.7849  170.2488 C.3     1  UNL1        0.1465
     19 C         139.0765  144.9580  164.1884 C.3     1  UNL1        0.0474
     20 O         140.0204  146.2682  162.1530 O.co2   1  UNL1       -0.5492
     21 C         139.2347  145.1158  162.7051 C.2     1  UNL1        0.0507
     22 O         138.6072  144.1212  161.7739 O.co2   1  UNL1       -0.5492
     23 C         138.8841  138.0423  162.2528 C.3     1  UNL1        0.0077
     24 C         140.2063  138.0106  161.5453 C.3     1  UNL1        0.0459
     25 C         141.4259  138.5787  162.2088 C.ar    1  UNL1        0.0603
     26 C         141.9654  137.9440  163.4562 C.ar    1  UNL1        0.0145
     27 C         143.1848  138.5120  164.1197 C.ar    1  UNL1       -0.0003
     28 C         143.8648  139.7149  163.5357 C.ar    1  UNL1        0.0092
     29 C         143.3253  140.3495  162.2883 C.ar    1  UNL1        0.1240
     30 N         142.1058  139.7814  161.6248 N.ar    1  UNL1       -0.2356
     31 N         144.0052  141.5523  161.7043 N.pl3   1  UNL1       -0.3184
     32 C         145.2246  142.1204  162.3678 C.3     1  UNL1        0.0885
     33 C         145.7642  141.4857  163.6152 C.3     1  UNL1        0.0260
     34 C         145.0843  140.2829  164.1992 C.3     1  UNL1        0.0309
     35 H         143.6511  141.9689  160.8856 H       1  UNL1        0.1482
@<TRIPOS>UNITY_ATOM_ATTR
20 1
charge -1
@<TRIPOS>BOND
     1    20    21   ar
     2    21    22   ar
     3    21    19    1
     4     7    19    1
     5     7     6    1
     6     6     1    1
     7     1     2    1
     8     2     3    1
     9     3     4    1
    10     4    23    1
    11    23    24    1
    12    24    25    1
    13    25    26   ar
    14    26    27   ar
    15    27    28   ar
    16    28    29   ar
    17    29    30   ar
    18    29    31    1
    19    31    32    1
    20    32    33    1
    21    33    34    1
    22     4     5    1
    23     7     8    1
    24     8     9   ar
    25     9    10   ar
    26    10    11   ar
    27    11    12   ar
    28    12    14    1
    29    14    15    1
    30    15    16    1
    31    16    17    1
    32    17    18    1
    33    12    13   ar
    34     5     1    1
    35    13     8   ar
    36    30    25   ar
    37    18    14    1
    38    34    28    1
    39    31    35    1
@<TRIPOS>MOLECULE
*****
 35 39 0 0 0
SMALL
GASTEIGER

@<TRIPOS>ATOM
      1 N         143.0480  143.6436  163.0935 N.3     1  UNL1       -0.2724
      2 C         142.8847  143.8443  161.6159 C.3     1  UNL1        0.0721
      3 C         141.5344  144.4523  161.3772 C.3     1  UNL1        0.0187
      4 C         140.8632  144.6275  162.7071 C.3     1  UNL1        0.0178
      5 C         141.7986  144.1277  163.7678 C.3     1  UNL1        0.0721
      6 C         144.2496  143.0611  163.7767 C.3     1  UNL1        0.0768
      7 C         144.3043  141.5920  164.0747 C.3     1  UNL1        0.0438
      8 C         143.6215  141.0482  165.2947 C.ar    1  UNL1       -0.0211
      9 C         143.4461  139.5676  165.4588 C.ar    1  UNL1       -0.0042
     10 C         142.7633  139.0239  166.6787 C.ar    1  UNL1       -0.0006
     11 C         142.2559  139.9608  167.7345 C.ar    1  UNL1       -0.0042
     12 C         142.4313  141.4415  167.5704 C.ar    1  UNL1       -0.0203
     13 C         143.1141  141.9852  166.3505 C.ar    1  UNL1       -0.0084
     14 C         141.9239  142.3784  168.6262 C.3     1  UNL1        0.0544
     15 C         140.5769  143.0382  168.6460 C.3     1  UNL1        0.0389
     16 C         140.4949  143.8876  169.8796 C.3     1  UNL1        0.1426
     17 O         141.7912  143.7528  170.6222 O.3     1  UNL1       -0.3534
     18 C         142.6743  142.8200  169.8475 C.3     1  UNL1        0.1465
     19 C         145.0417  140.6667  163.1528 C.3     1  UNL1        0.0474
     20 O         144.1649  140.8343  160.7128 O.co2   1  UNL1       -0.5492
     21 C         144.3331  140.0526  161.9820 C.2     1  UNL1        0.0507
     22 O         143.7926  138.6568  162.0803 O.co2   1  UNL1       -0.5492
     23 C         139.4965  145.2017  162.9361 C.3     1  UNL1        0.0077
     24 C         138.3388  144.2916  163.2212 C.3     1  UNL1        0.0459
     25 C         138.5836  142.9112  163.7550 C.ar    1  UNL1        0.0603
     26 C         139.0064  142.7230  165.1818 C.ar    1  UNL1        0.0145
     27 C         139.2512  141.3428  165.7156 C.ar    1  UNL1       -0.0003
     28 C         139.0733  140.1507  164.8226 C.ar    1  UNL1        0.0092
     29 C         138.6505  140.3390  163.3958 C.ar    1  UNL1        0.1240
     30 N         138.4057  141.7193  162.8620 N.ar    1  UNL1       -0.2356
     31 N         138.4725  139.1470  162.5028 N.pl3   1  UNL1       -0.3184
     32 C         138.7174  137.7668  163.0366 C.3     1  UNL1        0.0885
     33 C         139.1401  137.5785  164.4634 C.3     1  UNL1        0.0260
     34 C         139.3181  138.7705  165.3564 C.3     1  UNL1        0.0309
     35 H         138.1951  139.2706  161.5663 H       1  UNL1        0.1482
@<TRIPOS>UNITY_ATOM_ATTR
20 1
charge -1
@<TRIPOS>BOND
     1    20    21   ar
     2    21    22   ar
     3    21    19    1
     4     7    19    1
     5     7     6    1
     6     6     1    1
     7     1     2    1
     8     2     3    1
     9     3     4    1
    10     4    23    1
    11    23    24    1
    12    24    25    1
    13    25    26   ar
    14    26    27   ar
    15    27    28   ar
    16    28    29   ar
    17    29    30   ar
    18    29    31    1
    19    31    32    1
    20    32    33    1
    21    33    34    1
    22     4     5    1
    23     7     8    1
    24     8     9   ar
    25     9    10   ar
    26    10    11   ar
    27    11    12   ar
    28    12    14    1
    29    14    15    1
    30    15    16    1
    31    16    17    1
    32    17    18    1
    33    12    13   ar
    34     5     1    1
    35    13     8   ar
    36    30    25   ar
    37    18    14    1
    38    34    28    1
    39    31    35    1
@<TRIPOS>MOLECULE
*****
 35 39 0 0 0
SMALL
GASTEIGER

@<TRIPOS>ATOM
      1 N         138.1350  141.0357  164.0581 N.3     1  UNL1       -0.2724
      2 C         137.5317  141.2576  162.7028 C.3     1  UNL1        0.0721
      3 C         137.7710  142.6874  162.3173 C.3     1  UNL1        0.0187
      4 C         138.5222  143.3491  163.4343 C.3     1  UNL1        0.0178
      5 C         138.7472  142.3283  164.5102 C.3     1  UNL1        0.0721
      6 C         138.1275  139.7474  164.8264 C.3     1  UNL1        0.0768
      7 C         139.3698  138.9098  164.8982 C.3     1  UNL1        0.0438
      8 C         140.4358  139.2338  165.9026 C.ar    1  UNL1       -0.0211
      9 C         141.8510  138.7992  165.6609 C.ar    1  UNL1       -0.0042
     10 C         142.9169  139.1232  166.6653 C.ar    1  UNL1       -0.0006
     11 C         142.5677  139.8818  167.9113 C.ar    1  UNL1       -0.0042
     12 C         141.1525  140.3163  168.1530 C.ar    1  UNL1       -0.0203
     13 C         140.0866  139.9923  167.1487 C.ar    1  UNL1       -0.0084
     14 C         140.8033  141.0749  169.3991 C.3     1  UNL1        0.0544
     15 C         140.2228  142.4568  169.4565 C.3     1  UNL1        0.0389
     16 C         140.0340  142.8207  170.8994 C.3     1  UNL1        0.1426
     17 O         140.4978  141.6637  171.7337 O.3     1  UNL1       -0.3534
     18 C         140.9732  140.5847  170.8064 C.3     1  UNL1        0.1465
     19 C         139.5460  137.7481  163.9657 C.3     1  UNL1        0.0474
     20 O         138.8798  137.9075  161.4595 O.co2   1  UNL1       -0.5492
     21 C         139.9238  137.9865  162.5338 C.2     1  UNL1        0.0507
     22 O         141.3455  138.3038  162.1761 O.co2   1  UNL1       -0.5492
     23 C         138.9698  144.7803  163.4693 C.3     1  UNL1        0.0077
     24 C         140.2681  145.1758  162.8307 C.3     1  UNL1        0.0459
     25 C         141.5302  144.4452  163.1822 C.ar    1  UNL1        0.0603
     26 C         142.6346  145.1598  163.9029 C.ar    1  UNL1        0.0145
     27 C         143.8966  144.4292  164.2544 C.ar    1  UNL1       -0.0003
     28 C         144.0542  142.9839  163.8851 C.ar    1  UNL1        0.0092
     29 C         142.9497  142.2692  163.1644 C.ar    1  UNL1        0.1240
     30 N         141.6877  142.9999  162.8129 N.ar    1  UNL1       -0.2356
     31 N         143.1073  140.8240  162.7952 N.pl3   1  UNL1       -0.3184
     32 C         144.3692  140.0934  163.1466 C.3     1  UNL1        0.0885
     33 C         145.4737  140.8080  163.8674 C.3     1  UNL1        0.0260
     34 C         145.3162  142.2533  164.2366 C.3     1  UNL1        0.0309
     35 H         142.3824  140.3549  162.3221 H       1  UNL1        0.1482
@<TRIPOS>UNITY_ATOM_ATTR
20 1
charge -1
@<TRIPOS>BOND
     1    20    21   ar
     2    21    22   ar
     3    21    19    1
     4     7    19    1
     5     7     6    1
     6     6     1    1
     7     1     2    1
     8     2     3    1
     9     3     4    1
    10     4    23    1
    11    23    24    1
    12    24    25    1
    13    25    26   ar
    14    26    27   ar
    15    27    28   ar
    16    28    29   ar
    17    29    30   ar
    18    29    31    1
    19    31    32    1
    20    32    33    1
    21    33    34    1
    22     4     5    1
    23     7     8    1
    24     8     9   ar
    25     9    10   ar
    26    10    11   ar
    27    11    12   ar
    28    12    14    1
    29    14    15    1
    30    15    16    1
    31    16    17    1
    32    17    18    1
    33    12    13   ar
    34     5     1    1
    35    13     8   ar
    36    30    25   ar
    37    18    14    1
    38    34    28    1
    39    31    35    1
@<TRIPOS>MOLECULE
*****
 35 39 0 0 0
SMALL
GASTEIGER

@<TRIPOS>ATOM
      1 N         137.9984  140.4973  163.1565 N.3     1  UNL1       -0.2724
      2 C         137.9482  141.3036  161.8926 C.3     1  UNL1        0.0721
      3 C         137.8206  142.7497  162.2701 C.3     1  UNL1        0.0187
      4 C         137.7919  142.8371  163.7673 C.3     1  UNL1        0.0178
      5 C         137.9018  141.4451  164.3151 C.3     1  UNL1        0.0721
      6 C         138.1233  139.0052  163.2461 C.3     1  UNL1        0.0768
      7 C         139.1168  138.3908  164.1871 C.3     1  UNL1        0.0438
      8 C         140.5868  138.5385  163.9270 C.ar    1  UNL1       -0.0211
      9 C         141.5646  138.4150  165.0577 C.ar    1  UNL1       -0.0042
     10 C         143.0345  138.5627  164.7976 C.ar    1  UNL1       -0.0006
     11 C         143.5265  138.8339  163.4068 C.ar    1  UNL1       -0.0042
     12 C         142.5487  138.9574  162.2761 C.ar    1  UNL1       -0.0203
     13 C         141.0788  138.8097  162.5362 C.ar    1  UNL1       -0.0084
     14 C         143.0407  139.2286  160.8853 C.3     1  UNL1        0.0544
     15 C         143.5910  140.5304  160.3829 C.3     1  UNL1        0.0389
     16 C         143.9592  140.3520  158.9398 C.3     1  UNL1        0.1426
     17 O         143.6366  138.9398  158.5503 O.3     1  UNL1       -0.3534
     18 C         143.0689  138.2455  159.7527 C.3     1  UNL1        0.1465
     19 C         138.6405  137.6288  165.3881 C.3     1  UNL1        0.0474
     20 O         136.9652  137.8614  167.3603 O.co2   1  UNL1       -0.5492
     21 C         138.1560  138.3668  166.6009 C.2     1  UNL1        0.0507
     22 O         138.8623  139.6100  167.0542 O.co2   1  UNL1       -0.5492
     23 C         137.6741  144.0957  164.5748 C.3     1  UNL1        0.0077
     24 C         138.8779  144.6530  165.2750 C.3     1  UNL1        0.0459
     25 C         140.2206  144.0122  165.0833 C.ar    1  UNL1        0.0603
     26 C         140.7111  142.9904  166.0658 C.ar    1  UNL1        0.0145
     27 C         142.0537  142.3497  165.8741 C.ar    1  UNL1       -0.0003
     28 C         142.9059  142.7308  164.6999 C.ar    1  UNL1        0.0092
     29 C         142.4154  143.7526  163.7174 C.ar    1  UNL1        0.1240
     30 N         141.0726  144.3933  163.9091 N.ar    1  UNL1       -0.2356
     31 N         143.2674  144.1337  162.5433 N.pl3   1  UNL1       -0.3184
     32 C         144.6101  143.4929  162.3516 C.3     1  UNL1        0.0885
     33 C         145.1006  142.4711  163.3341 C.3     1  UNL1        0.0260
     34 C         144.2485  142.0901  164.5083 C.3     1  UNL1        0.0309
     35 H         142.9455  144.8043  161.8984 H       1  UNL1        0.1482
@<TRIPOS>UNITY_ATOM_ATTR
20 1
charge -1
@<TRIPOS>BOND
     1    20    21   ar
     2    21    22   ar
     3    21    19    1
     4     7    19    1
     5     7     6    1
     6     6     1    1
     7     1     2    1
     8     2     3    1
     9     3     4    1
    10     4    23    1
    11    23    24    1
    12    24    25    1
    13    25    26   ar
    14    26    27   ar
    15    27    28   ar
    16    28    29   ar
    17    29    30   ar
    18    29    31    1
    19    31    32    1
    20    32    33    1
    21    33    34    1
    22     4     5    1
    23     7     8    1
    24     8     9   ar
    25     9    10   ar
    26    10    11   ar
    27    11    12   ar
    28    12    14    1
    29    14    15    1
    30    15    16    1
    31    16    17    1
    32    17    18    1
    33    12    13   ar
    34     5     1    1
    35    13     8   ar
    36    30    25   ar
    37    18    14    1
    38    34    28    1
    39    31    35    1
@<TRIPOS>MOLECULE
*****
 35 39 0 0 0
SMALL
GASTEIGER

@<TRIPOS>ATOM
      1 N         139.4512  139.7513  166.7385 N.3     1  UNL1       -0.2724
      2 C         138.2712  139.4524  165.8619 C.3     1  UNL1        0.0721
      3 C         138.6881  138.4161  164.8608 C.3     1  UNL1        0.0187
      4 C         140.1258  138.0745  165.1187 C.3     1  UNL1        0.0178
      5 C         140.5973  138.8997  166.2791 C.3     1  UNL1        0.0721
      6 C         139.4799  140.7300  167.8749 C.3     1  UNL1        0.0768
      7 C         140.6473  141.6580  168.0362 C.3     1  UNL1        0.0438
      8 C         141.3045  142.2538  166.8265 C.ar    1  UNL1       -0.0211
      9 C         142.7751  142.0629  166.6014 C.ar    1  UNL1       -0.0042
     10 C         143.4322  142.6588  165.3918 C.ar    1  UNL1       -0.0006
     11 C         142.6186  143.4456  164.4073 C.ar    1  UNL1       -0.0042
     12 C         141.1480  143.6365  164.6325 C.ar    1  UNL1       -0.0203
     13 C         140.4909  143.0406  165.8421 C.ar    1  UNL1       -0.0084
     14 C         140.3344  144.4233  163.6481 C.3     1  UNL1        0.0544
     15 C         140.8628  145.4420  162.6821 C.3     1  UNL1        0.0389
     16 C         139.7046  145.9778  161.8938 C.3     1  UNL1        0.1426
     17 O         138.4604  145.2902  162.3725 O.3     1  UNL1       -0.3534
     18 C         138.8497  144.3295  163.4568 C.3     1  UNL1        0.1465
     19 C         141.1576  141.9901  169.4071 C.3     1  UNL1        0.0474
     20 O         140.0332  142.6081  171.6663 O.co2   1  UNL1       -0.5492
     21 C         140.4191  142.9752  170.2639 C.2     1  UNL1        0.0507
     22 O         140.0665  144.3273  169.7185 O.co2   1  UNL1       -0.5492
     23 C         140.9475  137.0820  164.3509 C.3     1  UNL1        0.0077
     24 C         141.1939  137.2862  162.8855 C.3     1  UNL1        0.0459
     25 C         141.5418  138.6499  162.3663 C.ar    1  UNL1        0.0603
     26 C         140.4996  139.4771  161.6738 C.ar    1  UNL1        0.0145
     27 C         140.8474  140.8407  161.1547 C.ar    1  UNL1       -0.0003
     28 C         142.2375  141.3771  161.3280 C.ar    1  UNL1        0.0092
     29 C         143.2797  140.5499  162.0205 C.ar    1  UNL1        0.1240
     30 N         142.9318  139.1862  162.5396 N.ar    1  UNL1       -0.2356
     31 N         144.6697  141.0863  162.1938 N.pl3   1  UNL1       -0.3184
     32 C         145.0176  142.4499  161.6747 C.3     1  UNL1        0.0885
     33 C         143.9754  143.2771  160.9822 C.3     1  UNL1        0.0260
     34 C         142.5853  142.7407  160.8088 C.3     1  UNL1        0.0309
     35 H         145.3538  140.5434  162.6483 H       1  UNL1        0.1482
@<TRIPOS>UNITY_ATOM_ATTR
20 1
charge -1
@<TRIPOS>BOND
     1    20    21   ar
     2    21    22   ar
     3    21    19    1
     4     7    19    1
     5     7     6    1
     6     6     1    1
     7     1     2    1
     8     2     3    1
     9     3     4    1
    10     4    23    1
    11    23    24    1
    12    24    25    1
    13    25    26   ar
    14    26    27   ar
    15    27    28   ar
    16    28    29   ar
    17    29    30   ar
    18    29    31    1
    19    31    32    1
    20    32    33    1
    21    33    34    1
    22     4     5    1
    23     7     8    1
    24     8     9   ar
    25     9    10   ar
    26    10    11   ar
    27    11    12   ar
    28    12    14    1
    29    14    15    1
    30    15    16    1
    31    16    17    1
    32    17    18    1
    33    12    13   ar
    34     5     1    1
    35    13     8   ar
    36    30    25   ar
    37    18    14    1
    38    34    28    1
    39    31    35    1
@<TRIPOS>MOLECULE
*****
 35 39 0 0 0
SMALL
GASTEIGER

@<TRIPOS>ATOM
      1 N         138.4441  143.0511  163.1306 N.3     1  UNL1       -0.2724
      2 C         137.6878  142.2288  164.1317 C.3     1  UNL1        0.0721
      3 C         137.3410  140.9189  163.4884 C.3     1  UNL1        0.0187
      4 C         137.8828  140.9316  162.0897 C.3     1  UNL1        0.0178
      5 C         138.5646  142.2493  161.8686 C.3     1  UNL1        0.0721
      6 C         138.9848  144.4325  163.3526 C.3     1  UNL1        0.0768
      7 C         140.4328  144.7224  163.0891 C.3     1  UNL1        0.0438
      8 C         141.4906  144.1111  163.9595 C.ar    1  UNL1       -0.0211
      9 C         142.9317  144.4730  163.7549 C.ar    1  UNL1       -0.0042
     10 C         143.9894  143.8617  164.6252 C.ar    1  UNL1       -0.0006
     11 C         143.6059  142.8883  165.7002 C.ar    1  UNL1       -0.0042
     12 C         142.1647  142.5264  165.9048 C.ar    1  UNL1       -0.0203
     13 C         141.1070  143.1377  165.0345 C.ar    1  UNL1       -0.0084
     14 C         141.7812  141.5531  166.9798 C.3     1  UNL1        0.0544
     15 C         140.4730  140.8269  167.0859 C.3     1  UNL1        0.0389
     16 C         140.5218  139.9601  168.3091 C.3     1  UNL1        0.1426
     17 O         141.8603  140.1505  168.9590 O.3     1  UNL1       -0.3534
     18 C         142.6386  141.1351  168.1374 C.3     1  UNL1        0.1465
     19 C         140.8230  145.6236  161.9553 C.3     1  UNL1        0.0474
     20 O         142.2551  144.7043  159.9921 O.co2   1  UNL1       -0.5492
     21 C         140.9184  145.0773  160.5616 C.2     1  UNL1        0.0507
     22 O         139.6772  144.9039  159.7374 O.co2   1  UNL1       -0.5492
     23 C         137.7638  139.8214  161.0881 C.3     1  UNL1        0.0077
     24 C         138.7319  138.6761  161.1194 C.3     1  UNL1        0.0459
     25 C         139.7113  138.5525  162.2489 C.ar    1  UNL1        0.0603
     26 C         139.3435  137.7766  163.4788 C.ar    1  UNL1        0.0145
     27 C         140.3227  137.6529  164.6083 C.ar    1  UNL1       -0.0003
     28 C         141.6698  138.3052  164.5079 C.ar    1  UNL1        0.0092
     29 C         142.0376  139.0811  163.2779 C.ar    1  UNL1        0.1240
     30 N         141.0583  139.2047  162.1484 N.ar    1  UNL1       -0.2356
     31 N         143.3846  139.7334  163.1775 N.pl3   1  UNL1       -0.3184
     32 C         144.3638  139.6097  164.3070 C.3     1  UNL1        0.0885
     33 C         143.9961  138.8338  165.5369 C.3     1  UNL1        0.0260
     34 C         142.6491  138.1815  165.6373 C.3     1  UNL1        0.0309
     35 H         143.6259  140.2426  162.3702 H       1  UNL1        0.1482
@<TRIPOS>UNITY_ATOM_ATTR
20 1
charge -1
@<TRIPOS>BOND
     1    20    21   ar
     2    21    22   ar
     3    21    19    1
     4     7    19    1
     5     7     6    1
     6     6     1    1
     7     1     2    1
     8     2     3    1
     9     3     4    1
    10     4    23    1
    11    23    24    1
    12    24    25    1
    13    25    26   ar
    14    26    27   ar
    15    27    28   ar
    16    28    29   ar
    17    29    30   ar
    18    29    31    1
    19    31    32    1
    20    32    33    1
    21    33    34    1
    22     4     5    1
    23     7     8    1
    24     8     9   ar
    25     9    10   ar
    26    10    11   ar
    27    11    12   ar
    28    12    14    1
    29    14    15    1
    30    15    16    1
    31    16    17    1
    32    17    18    1
    33    12    13   ar
    34     5     1    1
    35    13     8   ar
    36    30    25   ar
    37    18    14    1
    38    34    28    1
    39    31    35    1
@<TRIPOS>MOLECULE
*****
 35 39 0 0 0
SMALL
GASTEIGER

@<TRIPOS>ATOM
      1 N         144.3849  140.0334  162.8424 N.3     1  UNL1       -0.2724
      2 C         145.2844  140.4000  163.9855 C.3     1  UNL1        0.0721
      3 C         145.4322  141.8926  163.9988 C.3     1  UNL1        0.0187
      4 C         144.6241  142.4485  162.8639 C.3     1  UNL1        0.0178
      5 C         143.9768  141.2994  162.1493 C.3     1  UNL1        0.0721
      6 C         143.9670  138.6445  162.4597 C.3     1  UNL1        0.0768
      7 C         142.5699  138.3877  161.9779 C.3     1  UNL1        0.0438
      8 C         141.4347  138.3444  162.9576 C.ar    1  UNL1       -0.0211
      9 C         140.1597  137.6411  162.5976 C.ar    1  UNL1       -0.0042
     10 C         139.0247  137.5979  163.5773 C.ar    1  UNL1       -0.0006
     11 C         139.1647  138.2579  164.9170 C.ar    1  UNL1       -0.0042
     12 C         140.4397  138.9611  165.2770 C.ar    1  UNL1       -0.0203
     13 C         141.5748  139.0044  164.2973 C.ar    1  UNL1       -0.0084
     14 C         140.5797  139.6212  166.6167 C.3     1  UNL1        0.0544
     15 C         139.4550  140.0115  167.5291 C.3     1  UNL1        0.0389
     16 C         140.0491  140.6383  168.7555 C.3     1  UNL1        0.1426
     17 O         141.5412  140.6353  168.6011 O.3     1  UNL1       -0.3534
     18 C         141.8690  140.0066  167.2792 C.3     1  UNL1        0.1465
     19 C         142.3079  138.1742  160.5165 C.3     1  UNL1        0.0474
     20 O         141.5526  140.2012  159.0775 O.co2   1  UNL1       -0.5492
     21 C         142.6279  139.2587  159.5309 C.2     1  UNL1        0.0507
     22 O         144.0230  139.4006  158.9986 O.co2   1  UNL1       -0.5492
     23 C         144.4872  143.8989  162.5065 C.3     1  UNL1        0.0077
     24 C         143.2593  144.6586  162.9125 C.3     1  UNL1        0.0459
     25 C         142.0041  143.9194  163.2707 C.ar    1  UNL1        0.0603
     26 C         141.6029  143.7758  164.7089 C.ar    1  UNL1        0.0145
     27 C         140.3478  143.0367  165.0671 C.ar    1  UNL1       -0.0003
     28 C         139.4939  142.4411  163.9872 C.ar    1  UNL1        0.0092
     29 C         139.8951  142.5847  162.5490 C.ar    1  UNL1        0.1240
     30 N         141.1503  143.3239  162.1908 N.ar    1  UNL1       -0.2356
     31 N         139.0413  141.9892  161.4690 N.pl3   1  UNL1       -0.3184
     32 C         137.7862  141.2500  161.8273 C.3     1  UNL1        0.0885
     33 C         137.3850  141.1064  163.2655 C.3     1  UNL1        0.0260
     34 C         138.2388  141.7019  164.3454 C.3     1  UNL1        0.0309
     35 H         139.3047  142.0835  160.5251 H       1  UNL1        0.1482
@<TRIPOS>UNITY_ATOM_ATTR
20 1
charge -1
@<TRIPOS>BOND
     1    20    21   ar
     2    21    22   ar
     3    21    19    1
     4     7    19    1
     5     7     6    1
     6     6     1    1
     7     1     2    1
     8     2     3    1
     9     3     4    1
    10     4    23    1
    11    23    24    1
    12    24    25    1
    13    25    26   ar
    14    26    27   ar
    15    27    28   ar
    16    28    29   ar
    17    29    30   ar
    18    29    31    1
    19    31    32    1
    20    32    33    1
    21    33    34    1
    22     4     5    1
    23     7     8    1
    24     8     9   ar
    25     9    10   ar
    26    10    11   ar
    27    11    12   ar
    28    12    14    1
    29    14    15    1
    30    15    16    1
    31    16    17    1
    32    17    18    1
    33    12    13   ar
    34     5     1    1
    35    13     8   ar
    36    30    25   ar
    37    18    14    1
    38    34    28    1
    39    31    35    1
