@<TRIPOS>MOLECULE
*****
 29 31 0 0 0
SMALL
GASTEIGER

@<TRIPOS>ATOM
      1 C         142.1587  140.2579  168.5460 C.ar    1  UNL1        0.1219
      2 C         142.5548  139.9872  167.1248 C.ar    1  UNL1        0.0199
      3 C         142.2056  140.9716  166.0483 C.ar    1  UNL1        0.0014
      4 C         141.4601  142.2268  166.3929 C.ar    1  UNL1        0.0001
      5 C         141.0639  142.4975  167.8141 C.ar    1  UNL1        0.0014
      6 C         141.4132  141.5131  168.8906 C.ar    1  UNL1        0.0199
      7 C         141.1108  143.2112  165.3164 C.ar    1  UNL1       -0.0000
      8 C         139.6882  143.6504  165.1346 C.ar    1  UNL1       -0.0003
      9 C         139.3389  144.6349  164.0580 C.ar    1  UNL1       -0.0042
     10 C         140.4123  145.1801  163.1633 C.ar    1  UNL1       -0.0208
     11 C         141.8349  144.7409  163.3452 C.ar    1  UNL1       -0.0042
     12 C         142.1842  143.7564  164.4217 C.ar    1  UNL1       -0.0003
     13 C         140.0630  146.1645  162.0868 C.3     1  UNL1        0.0437
     14 C         139.8780  145.6965  160.6738 C.3     1  UNL1        0.0768
     15 N         140.4739  144.3929  160.2314 N.3     1  UNL1       -0.2737
     16 C         141.8100  144.2121  159.5742 C.3     1  UNL1        0.0721
     17 C         142.0002  142.7487  159.3052 C.3     1  UNL1        0.0187
     18 C         140.7815  142.0251  159.7961 C.3     1  UNL1        0.0174
     19 C         139.8381  143.0412  160.3686 C.3     1  UNL1        0.0576
     20 C         138.4950  142.7557  160.9722 C.3     1  UNL1        0.0173
     21 S         142.5079  139.2735  169.6225 S.O2    1  UNL1        0.0603
     22 O         141.7556  140.1003  170.6227 O.2     1  UNL1       -0.1530
     23 O         143.2602  138.4467  168.6223 O.2     1  UNL1       -0.1530
     24 N         142.8572  138.2891  170.6990 N.3     1  UNL1       -0.1768
     25 H         143.3628  138.8063  171.4183 H       1  UNL1        0.1489
     26 C         143.6848  137.0817  170.3715 C.3     1  UNL1        0.1234
     27 C         144.5415  136.4504  171.4286 C.3     1  UNL1        0.1610
     28 C         146.9226  136.1667  172.4287 C.3     1  UNL1        0.1742
     29 O         145.9011  137.0105  171.7254 O.3     1  UNL1       -0.3496
@<TRIPOS>BOND
     1    28    29    1
     2    29    27    1
     3    27    26    1
     4    26    24    1
     5    24    21    1
     6    21    22    2
     7    21    23    2
     8    21     1    1
     9     1     2   ar
    10     2     3   ar
    11     3     4   ar
    12     4     7    1
    13     7     8   ar
    14     8     9   ar
    15     9    10   ar
    16    10    13    1
    17    13    14    1
    18    14    15    1
    19    15    16    1
    20    16    17    1
    21    17    18    1
    22    18    19    1
    23    19    20    1
    24    10    11   ar
    25    11    12   ar
    26     4     5   ar
    27     5     6   ar
    28     6     1   ar
    29    12     7   ar
    30    19    15    1
    31    24    25    1
@<TRIPOS>MOLECULE
*****
 29 31 0 0 0
SMALL
GASTEIGER

@<TRIPOS>ATOM
      1 C         139.5011  140.4694  168.7509 C.ar    1  UNL1        0.1219
      2 C         139.3248  139.9053  167.3723 C.ar    1  UNL1        0.0199
      3 C         140.1907  140.3896  166.2473 C.ar    1  UNL1        0.0014
      4 C         141.2331  141.4379  166.5010 C.ar    1  UNL1        0.0001
      5 C         141.4095  142.0020  167.8796 C.ar    1  UNL1        0.0014
      6 C         140.5435  141.5177  169.0046 C.ar    1  UNL1        0.0199
      7 C         142.0991  141.9222  165.3760 C.ar    1  UNL1       -0.0000
      8 C         141.5169  142.7938  164.3030 C.ar    1  UNL1       -0.0003
      9 C         142.3829  143.2780  163.1781 C.ar    1  UNL1       -0.0042
     10 C         143.8311  142.8907  163.1261 C.ar    1  UNL1       -0.0208
     11 C         144.4133  142.0192  164.1991 C.ar    1  UNL1       -0.0042
     12 C         143.5473  141.5349  165.3241 C.ar    1  UNL1       -0.0003
     13 C         144.6971  143.3750  162.0012 C.3     1  UNL1        0.0437
     14 C         144.7660  142.5982  160.7198 C.3     1  UNL1        0.0768
     15 N         143.5644  141.8423  160.2354 N.3     1  UNL1       -0.2737
     16 C         142.4734  142.3869  159.3619 C.3     1  UNL1        0.0721
     17 C         141.4775  141.2902  159.1261 C.3     1  UNL1        0.0187
     18 C         141.9530  140.0679  159.8539 C.3     1  UNL1        0.0174
     19 C         143.2429  140.4090  160.5395 C.3     1  UNL1        0.0576
     20 C         144.0664  139.4801  161.3813 C.3     1  UNL1        0.0173
     21 S         138.6351  139.9851  169.8759 S.O2    1  UNL1        0.0603
     22 O         139.4441  140.7935  170.8466 O.2     1  UNL1       -0.1530
     23 O         137.8262  139.1768  168.9052 O.2     1  UNL1       -0.1530
     24 N         137.7691  139.5009  171.0009 N.3     1  UNL1       -0.1768
     25 H         138.3781  138.9961  171.6449 H       1  UNL1        0.1489
     26 C         136.6015  138.6034  170.7158 C.3     1  UNL1        0.1234
     27 C         135.8142  138.0143  171.8485 C.3     1  UNL1        0.1610
     28 C         135.8687  136.1026  173.6070 C.3     1  UNL1        0.1742
     29 O         135.9523  136.5580  172.1803 O.3     1  UNL1       -0.3496
@<TRIPOS>BOND
     1    28    29    1
     2    29    27    1
     3    27    26    1
     4    26    24    1
     5    24    21    1
     6    21    22    2
     7    21    23    2
     8    21     1    1
     9     1     2   ar
    10     2     3   ar
    11     3     4   ar
    12     4     7    1
    13     7     8   ar
    14     8     9   ar
    15     9    10   ar
    16    10    13    1
    17    13    14    1
    18    14    15    1
    19    15    16    1
    20    16    17    1
    21    17    18    1
    22    18    19    1
    23    19    20    1
    24    10    11   ar
    25    11    12   ar
    26     4     5   ar
    27     5     6   ar
    28     6     1   ar
    29    12     7   ar
    30    19    15    1
    31    24    25    1
@<TRIPOS>MOLECULE
*****
 29 31 0 0 0
SMALL
GASTEIGER

@<TRIPOS>ATOM
      1 C         138.2225  139.3018  168.5487 C.ar    1  UNL1        0.1219
      2 C         139.5337  140.0196  168.4253 C.ar    1  UNL1        0.0199
      3 C         140.2627  140.0299  167.1144 C.ar    1  UNL1        0.0014
      4 C         139.6804  139.3223  165.9269 C.ar    1  UNL1        0.0001
      5 C         138.3692  138.6044  166.0503 C.ar    1  UNL1        0.0014
      6 C         137.6402  138.5942  167.3612 C.ar    1  UNL1        0.0199
      7 C         140.4094  139.3325  164.6160 C.ar    1  UNL1       -0.0000
      8 C         141.1759  138.1210  164.1746 C.ar    1  UNL1       -0.0003
      9 C         141.9048  138.1313  162.8637 C.ar    1  UNL1       -0.0042
     10 C         141.8674  139.3530  161.9942 C.ar    1  UNL1       -0.0208
     11 C         141.1009  140.5644  162.4356 C.ar    1  UNL1       -0.0042
     12 C         140.3720  140.5542  163.7465 C.ar    1  UNL1       -0.0003
     13 C         142.5964  139.3632  160.6833 C.3     1  UNL1        0.0437
     14 C         143.9411  140.0193  160.5780 C.3     1  UNL1        0.0768
     15 N         144.2608  141.2147  161.4259 N.3     1  UNL1       -0.2737
     16 C         144.1472  142.6500  161.0050 C.3     1  UNL1        0.0721
     17 C         144.5664  143.5070  162.1624 C.3     1  UNL1        0.0187
     18 C         144.9392  142.6015  163.2987 C.3     1  UNL1        0.0174
     19 C         144.7503  141.1847  162.8435 C.3     1  UNL1        0.0576
     20 C         145.0061  139.9541  163.6621 C.3     1  UNL1        0.0173
     21 S         137.4935  139.2916  169.8596 S.O2    1  UNL1        0.0603
     22 O         138.3829  140.3897  170.3628 O.2     1  UNL1       -0.1530
     23 O         136.6041  138.1934  169.3565 O.2     1  UNL1       -0.1530
     24 N         136.7645  139.2813  171.1705 N.3     1  UNL1       -0.1768
     25 H         137.4730  139.3408  171.9019 H       1  UNL1        0.1489
     26 C         135.8731  138.1279  171.5240 C.3     1  UNL1        0.1234
     27 C         135.2174  138.0724  172.8720 C.3     1  UNL1        0.1610
     28 C         135.9338  135.9042  174.1114 C.3     1  UNL1        0.1742
     29 O         134.8654  136.7473  173.4807 O.3     1  UNL1       -0.3496
@<TRIPOS>BOND
     1    28    29    1
     2    29    27    1
     3    27    26    1
     4    26    24    1
     5    24    21    1
     6    21    22    2
     7    21    23    2
     8    21     1    1
     9     1     2   ar
    10     2     3   ar
    11     3     4   ar
    12     4     7    1
    13     7     8   ar
    14     8     9   ar
    15     9    10   ar
    16    10    13    1
    17    13    14    1
    18    14    15    1
    19    15    16    1
    20    16    17    1
    21    17    18    1
    22    18    19    1
    23    19    20    1
    24    10    11   ar
    25    11    12   ar
    26     4     5   ar
    27     5     6   ar
    28     6     1   ar
    29    12     7   ar
    30    19    15    1
    31    24    25    1
@<TRIPOS>MOLECULE
*****
 29 31 0 0 0
SMALL
GASTEIGER

@<TRIPOS>ATOM
      1 C         141.0986  145.1745  159.1481 C.ar    1  UNL1        0.1219
      2 C         141.9800  144.0375  159.5726 C.ar    1  UNL1        0.0199
      3 C         141.8917  143.5017  160.9708 C.ar    1  UNL1        0.0014
      4 C         140.9219  144.1028  161.9445 C.ar    1  UNL1        0.0001
      5 C         140.0405  145.2398  161.5200 C.ar    1  UNL1        0.0014
      6 C         140.1288  145.7757  160.1218 C.ar    1  UNL1        0.0199
      7 C         140.8336  143.5669  163.3427 C.ar    1  UNL1       -0.0000
      8 C         142.0862  143.2627  164.1099 C.ar    1  UNL1       -0.0003
      9 C         141.9978  142.7268  165.5081 C.ar    1  UNL1       -0.0042
     10 C         140.6570  142.4951  166.1392 C.ar    1  UNL1       -0.0208
     11 C         139.4044  142.7993  165.3721 C.ar    1  UNL1       -0.0042
     12 C         139.4927  143.3352  163.9738 C.ar    1  UNL1       -0.0003
     13 C         140.5686  141.9592  167.5374 C.3     1  UNL1        0.0437
     14 C         140.7322  140.4896  167.7891 C.3     1  UNL1        0.0768
     15 N         140.8344  139.5377  166.6343 N.3     1  UNL1       -0.2737
     16 C         142.1028  138.9732  166.0665 C.3     1  UNL1        0.0721
     17 C         141.7384  138.0698  164.9259 C.3     1  UNL1        0.0187
     18 C         140.2447  138.0760  164.7887 C.3     1  UNL1        0.0174
     19 C         139.6859  138.9832  165.8446 C.3     1  UNL1        0.0576
     20 C         138.2338  139.2832  166.0710 C.3     1  UNL1        0.0173
     21 S         141.1869  145.7104  157.7498 S.O2    1  UNL1        0.0603
     22 O         139.8303  145.1460  157.4478 O.2     1  UNL1       -0.1530
     23 O         142.5434  146.2748  158.0519 O.2     1  UNL1       -0.1530
     24 N         141.2752  146.2463  156.3516 N.3     1  UNL1       -0.1768
     25 H         141.6727  147.1832  156.4199 H       1  UNL1        0.1489
     26 C         140.0370  146.3614  155.5129 C.3     1  UNL1        0.1234
     27 C         139.5013  147.7141  155.1479 C.3     1  UNL1        0.1610
     28 C         138.4619  149.9740  155.8979 C.3     1  UNL1        0.1742
     29 O         138.7675  148.5309  156.1699 O.3     1  UNL1       -0.3496
@<TRIPOS>BOND
     1    28    29    1
     2    29    27    1
     3    27    26    1
     4    26    24    1
     5    24    21    1
     6    21    22    2
     7    21    23    2
     8    21     1    1
     9     1     2   ar
    10     2     3   ar
    11     3     4   ar
    12     4     7    1
    13     7     8   ar
    14     8     9   ar
    15     9    10   ar
    16    10    13    1
    17    13    14    1
    18    14    15    1
    19    15    16    1
    20    16    17    1
    21    17    18    1
    22    18    19    1
    23    19    20    1
    24    10    11   ar
    25    11    12   ar
    26     4     5   ar
    27     5     6   ar
    28     6     1   ar
    29    12     7   ar
    30    19    15    1
    31    24    25    1
@<TRIPOS>MOLECULE
*****
 29 31 0 0 0
SMALL
GASTEIGER

@<TRIPOS>ATOM
      1 C         138.3054  139.3484  168.6380 C.ar    1  UNL1        0.1219
      2 C         139.3384  140.2634  169.2257 C.ar    1  UNL1        0.0199
      3 C         140.3986  140.8597  168.3479 C.ar    1  UNL1        0.0014
      4 C         140.4258  140.5409  166.8825 C.ar    1  UNL1        0.0001
      5 C         139.3927  139.6259  166.2948 C.ar    1  UNL1        0.0014
      6 C         138.3325  139.0296  167.1725 C.ar    1  UNL1        0.0199
      7 C         141.4860  141.1372  166.0048 C.ar    1  UNL1       -0.0000
      8 C         141.5372  140.7871  164.5471 C.ar    1  UNL1       -0.0003
      9 C         142.5974  141.3834  163.6694 C.ar    1  UNL1       -0.0042
     10 C         143.6064  142.3297  164.2493 C.ar    1  UNL1       -0.0208
     11 C         143.5552  142.6798  165.7069 C.ar    1  UNL1       -0.0042
     12 C         142.4950  142.0835  166.5847 C.ar    1  UNL1       -0.0003
     13 C         144.6666  142.9260  163.3715 C.3     1  UNL1        0.0437
     14 C         144.3360  144.0835  162.4768 C.3     1  UNL1        0.0768
     15 N         143.1338  144.0202  161.5818 N.3     1  UNL1       -0.2737
     16 C         141.8083  144.6737  161.8383 C.3     1  UNL1        0.0721
     17 C         140.9014  144.3497  160.6883 C.3     1  UNL1        0.0187
     18 C         141.6665  143.4958  159.7210 C.3     1  UNL1        0.0174
     19 C         143.0462  143.2921  160.2732 C.3     1  UNL1        0.0576
     20 C         144.1453  142.4997  159.6299 C.3     1  UNL1        0.0173
     21 S         137.2452  138.7521  169.5157 S.O2    1  UNL1        0.0603
     22 O         136.7998  137.8760  168.3826 O.2     1  UNL1       -0.1530
     23 O         137.6906  139.6282  170.6489 O.2     1  UNL1       -0.1530
     24 N         136.1850  138.1558  170.3934 N.3     1  UNL1       -0.1768
     25 H         135.3243  138.1401  169.8463 H       1  UNL1        0.1489
     26 C         135.8510  138.7973  171.7076 C.3     1  UNL1        0.1234
     27 C         135.0193  138.0579  172.7132 C.3     1  UNL1        0.1610
     28 C         136.3614  135.9917  173.5376 C.3     1  UNL1        0.1742
     29 O         135.1586  136.5709  172.8538 O.3     1  UNL1       -0.3496
@<TRIPOS>BOND
     1    28    29    1
     2    29    27    1
     3    27    26    1
     4    26    24    1
     5    24    21    1
     6    21    22    2
     7    21    23    2
     8    21     1    1
     9     1     2   ar
    10     2     3   ar
    11     3     4   ar
    12     4     7    1
    13     7     8   ar
    14     8     9   ar
    15     9    10   ar
    16    10    13    1
    17    13    14    1
    18    14    15    1
    19    15    16    1
    20    16    17    1
    21    17    18    1
    22    18    19    1
    23    19    20    1
    24    10    11   ar
    25    11    12   ar
    26     4     5   ar
    27     5     6   ar
    28     6     1   ar
    29    12     7   ar
    30    19    15    1
    31    24    25    1
@<TRIPOS>MOLECULE
*****
 29 31 0 0 0
SMALL
GASTEIGER

@<TRIPOS>ATOM
      1 C         142.8561  140.7299  167.8086 C.ar    1  UNL1        0.1219
      2 C         142.9228  141.6823  166.6517 C.ar    1  UNL1        0.0199
      3 C         142.9407  141.1561  165.2472 C.ar    1  UNL1        0.0014
      4 C         142.8917  139.6775  164.9995 C.ar    1  UNL1        0.0001
      5 C         142.8250  138.7251  166.1564 C.ar    1  UNL1        0.0014
      6 C         142.8072  139.2513  167.5609 C.ar    1  UNL1        0.0199
      7 C         142.9096  139.1513  163.5949 C.ar    1  UNL1       -0.0000
      8 C         141.8032  138.2601  163.1138 C.ar    1  UNL1       -0.0003
      9 C         141.8210  137.7339  161.7092 C.ar    1  UNL1       -0.0042
     10 C         142.9452  138.0989  160.7858 C.ar    1  UNL1       -0.0208
     11 C         144.0516  138.9902  161.2669 C.ar    1  UNL1       -0.0042
     12 C         144.0338  139.5164  162.6715 C.ar    1  UNL1       -0.0003
     13 C         142.9630  137.5728  159.3812 C.3     1  UNL1        0.0437
     14 C         142.1495  138.2478  158.3170 C.3     1  UNL1        0.0768
     15 N         141.0180  139.1548  158.7003 N.3     1  UNL1       -0.2737
     16 C         139.5772  138.7592  158.8333 C.3     1  UNL1        0.0721
     17 C         138.7972  139.9766  159.2330 C.3     1  UNL1        0.0187
     18 C         139.7560  141.1245  159.3470 C.3     1  UNL1        0.0174
     19 C         141.1285  140.6167  159.0177 C.3     1  UNL1        0.0576
     20 C         142.3899  141.4282  159.0077 C.3     1  UNL1        0.0173
     21 S         142.8383  141.2561  169.2132 S.O2    1  UNL1        0.0603
     22 O         142.4385  139.9005  169.7159 O.2     1  UNL1       -0.1530
     23 O         143.2380  142.6116  168.7104 O.2     1  UNL1       -0.1530
     24 N         142.8204  141.7822  170.6178 N.3     1  UNL1       -0.1768
     25 H         143.4161  141.1659  171.1707 H       1  UNL1        0.1489
     26 C         141.5206  141.9051  171.3562 C.3     1  UNL1        0.1234
     27 C         140.3315  142.5245  170.6836 C.3     1  UNL1        0.1610
     28 C         139.0065  140.4374  169.8845 C.3     1  UNL1        0.1742
     29 O         139.0432  141.7623  170.5868 O.3     1  UNL1       -0.3496
@<TRIPOS>BOND
     1    28    29    1
     2    29    27    1
     3    27    26    1
     4    26    24    1
     5    24    21    1
     6    21    22    2
     7    21    23    2
     8    21     1    1
     9     1     2   ar
    10     2     3   ar
    11     3     4   ar
    12     4     7    1
    13     7     8   ar
    14     8     9   ar
    15     9    10   ar
    16    10    13    1
    17    13    14    1
    18    14    15    1
    19    15    16    1
    20    16    17    1
    21    17    18    1
    22    18    19    1
    23    19    20    1
    24    10    11   ar
    25    11    12   ar
    26     4     5   ar
    27     5     6   ar
    28     6     1   ar
    29    12     7   ar
    30    19    15    1
    31    24    25    1
@<TRIPOS>MOLECULE
*****
 29 31 0 0 0
SMALL
GASTEIGER

@<TRIPOS>ATOM
      1 C         141.1665  145.1181  159.3757 C.ar    1  UNL1        0.1219
      2 C         140.2947  145.7459  160.4225 C.ar    1  UNL1        0.0199
      3 C         140.3167  145.2239  161.8286 C.ar    1  UNL1        0.0014
      4 C         141.2104  144.0741  162.1879 C.ar    1  UNL1        0.0001
      5 C         142.0821  143.4462  161.1411 C.ar    1  UNL1        0.0014
      6 C         142.0602  143.9682  159.7350 C.ar    1  UNL1        0.0199
      7 C         141.2323  143.5521  163.5939 C.ar    1  UNL1       -0.0000
      8 C         142.5259  143.1059  164.2082 C.ar    1  UNL1       -0.0003
      9 C         142.5479  142.5839  165.6143 C.ar    1  UNL1       -0.0042
     10 C         141.2762  142.5081  166.4061 C.ar    1  UNL1       -0.0208
     11 C         139.9826  142.9543  165.7918 C.ar    1  UNL1       -0.0042
     12 C         139.9606  143.4763  164.3857 C.ar    1  UNL1       -0.0003
     13 C         141.2981  141.9861  167.8122 C.3     1  UNL1        0.0437
     14 C         140.9956  140.5418  168.0808 C.3     1  UNL1        0.0768
     15 N         140.2715  139.7234  167.0532 N.3     1  UNL1       -0.2737
     16 C         138.7907  139.4914  166.9945 C.3     1  UNL1        0.0721
     17 C         138.5050  138.6180  165.8089 C.3     1  UNL1        0.0187
     18 C         139.8092  138.3103  165.1348 C.3     1  UNL1        0.0174
     19 C         140.9010  138.9935  165.9038 C.3     1  UNL1        0.0576
     20 C         142.3651  138.9537  165.5803 C.3     1  UNL1        0.0173
     21 S         141.1445  145.6400  157.9696 S.O2    1  UNL1        0.0603
     22 O         142.4979  146.2531  158.1761 O.2     1  UNL1       -0.1530
     23 O         139.7912  145.0269  157.7631 O.2     1  UNL1       -0.1530
     24 N         141.1226  146.1620  156.5635 N.3     1  UNL1       -0.1768
     25 H         141.8860  146.8341  156.4870 H       1  UNL1        0.1489
     26 C         139.8938  146.8403  156.0344 C.3     1  UNL1        0.1234
     27 C         139.9327  147.5310  154.7035 C.3     1  UNL1        0.1610
     28 C         138.6700  149.6420  155.5400 C.3     1  UNL1        0.1742
     29 O         139.6636  149.0041  154.6148 O.3     1  UNL1       -0.3496
@<TRIPOS>BOND
     1    28    29    1
     2    29    27    1
     3    27    26    1
     4    26    24    1
     5    24    21    1
     6    21    22    2
     7    21    23    2
     8    21     1    1
     9     1     2   ar
    10     2     3   ar
    11     3     4   ar
    12     4     7    1
    13     7     8   ar
    14     8     9   ar
    15     9    10   ar
    16    10    13    1
    17    13    14    1
    18    14    15    1
    19    15    16    1
    20    16    17    1
    21    17    18    1
    22    18    19    1
    23    19    20    1
    24    10    11   ar
    25    11    12   ar
    26     4     5   ar
    27     5     6   ar
    28     6     1   ar
    29    12     7   ar
    30    19    15    1
    31    24    25    1
@<TRIPOS>MOLECULE
*****
 29 31 0 0 0
SMALL
GASTEIGER

@<TRIPOS>ATOM
      1 C         140.8170  143.9023  161.1435 C.ar    1  UNL1        0.1219
      2 C         141.3055  144.6329  162.3590 C.ar    1  UNL1        0.0199
      3 C         141.6048  143.8762  163.6191 C.ar    1  UNL1        0.0014
      4 C         141.4156  142.3889  163.6637 C.ar    1  UNL1        0.0001
      5 C         140.9271  141.6583  162.4482 C.ar    1  UNL1        0.0014
      6 C         140.6278  142.4150  161.1881 C.ar    1  UNL1        0.0199
      7 C         141.7149  141.6322  164.9238 C.ar    1  UNL1       -0.0000
      8 C         140.8795  140.4454  165.3024 C.ar    1  UNL1       -0.0003
      9 C         141.1788  139.6887  166.5624 C.ar    1  UNL1       -0.0042
     10 C         142.3136  140.1188  167.4440 C.ar    1  UNL1       -0.0208
     11 C         143.1490  141.3057  167.0654 C.ar    1  UNL1       -0.0042
     12 C         142.8497  142.0624  165.8054 C.ar    1  UNL1       -0.0003
     13 C         142.6129  139.3621  168.7041 C.3     1  UNL1        0.0437
     14 C         142.3087  139.9767  170.0381 C.3     1  UNL1        0.0768
     15 N         141.6486  141.3216  170.1114 N.3     1  UNL1       -0.2737
     16 C         142.3470  142.6387  170.2777 C.3     1  UNL1        0.0721
     17 C         141.3043  143.7167  170.3003 C.3     1  UNL1        0.0187
     18 C         139.9614  143.0659  170.1480 C.3     1  UNL1        0.0174
     19 C         140.1742  141.5857  170.0312 C.3     1  UNL1        0.0576
     20 C         139.1011  140.5512  169.8638 C.3     1  UNL1        0.0173
     21 S         140.5177  144.6590  159.8835 S.O2    1  UNL1        0.0603
     22 O         139.1866  143.9740  159.7883 O.2     1  UNL1       -0.1530
     23 O         141.8487  145.3440  159.9786 O.2     1  UNL1       -0.1530
     24 N         140.2183  145.4157  158.6234 N.3     1  UNL1       -0.1768
     25 H         139.5717  144.8420  158.0819 H       1  UNL1        0.1489
     26 C         141.3336  145.8021  157.6977 C.3     1  UNL1        0.1234
     27 C         141.0717  145.9486  156.2280 C.3     1  UNL1        0.1610
     28 C         140.1675  147.5348  154.3797 C.3     1  UNL1        0.1742
     29 O         140.0398  146.9235  155.7435 O.3     1  UNL1       -0.3496
@<TRIPOS>BOND
     1    28    29    1
     2    29    27    1
     3    27    26    1
     4    26    24    1
     5    24    21    1
     6    21    22    2
     7    21    23    2
     8    21     1    1
     9     1     2   ar
    10     2     3   ar
    11     3     4   ar
    12     4     7    1
    13     7     8   ar
    14     8     9   ar
    15     9    10   ar
    16    10    13    1
    17    13    14    1
    18    14    15    1
    19    15    16    1
    20    16    17    1
    21    17    18    1
    22    18    19    1
    23    19    20    1
    24    10    11   ar
    25    11    12   ar
    26     4     5   ar
    27     5     6   ar
    28     6     1   ar
    29    12     7   ar
    30    19    15    1
    31    24    25    1
@<TRIPOS>MOLECULE
*****
 29 31 0 0 0
SMALL
GASTEIGER

@<TRIPOS>ATOM
      1 C         141.6839  138.0376  158.3482 C.ar    1  UNL1        0.1219
      2 C         140.2337  138.3595  158.5560 C.ar    1  UNL1        0.0199
      3 C         139.6932  138.5220  159.9457 C.ar    1  UNL1        0.0014
      4 C         140.6029  138.3627  161.1277 C.ar    1  UNL1        0.0001
      5 C         142.0531  138.0408  160.9198 C.ar    1  UNL1        0.0014
      6 C         142.5936  137.8782  159.5301 C.ar    1  UNL1        0.0199
      7 C         140.0624  138.5253  162.5174 C.ar    1  UNL1       -0.0000
      8 C         140.5870  137.6684  163.6312 C.ar    1  UNL1       -0.0003
      9 C         140.0465  137.8310  165.0209 C.ar    1  UNL1       -0.0042
     10 C         138.9814  138.8504  165.2969 C.ar    1  UNL1       -0.0208
     11 C         138.4568  139.7073  164.1832 C.ar    1  UNL1       -0.0042
     12 C         138.9973  139.5447  162.7934 C.ar    1  UNL1       -0.0003
     13 C         138.4409  139.0130  166.6867 C.3     1  UNL1        0.0437
     14 C         139.2190  139.7884  167.7081 C.3     1  UNL1        0.0768
     15 N         140.2883  140.7444  167.2692 N.3     1  UNL1       -0.2737
     16 C         140.0683  142.0510  166.5660 C.3     1  UNL1        0.0721
     17 C         141.4094  142.6758  166.3186 C.3     1  UNL1        0.0187
     18 C         142.4582  141.7554  166.8689 C.3     1  UNL1        0.0174
     19 C         141.7653  140.5617  167.4565 C.3     1  UNL1        0.0576
     20 C         142.4323  139.3910  168.1155 C.3     1  UNL1        0.0173
     21 S         142.2244  137.8750  156.9584 S.O2    1  UNL1        0.0603
     22 O         140.9113  137.3016  156.5147 O.2     1  UNL1       -0.1530
     23 O         143.5376  138.4483  157.4020 O.2     1  UNL1       -0.1530
     24 N         142.7649  137.7124  155.5686 N.3     1  UNL1       -0.1768
     25 H         141.9782  137.4480  154.9758 H       1  UNL1        0.1489
     26 C         143.8605  136.7234  155.3009 C.3     1  UNL1        0.1234
     27 C         143.5305  135.2733  155.1055 C.3     1  UNL1        0.1610
     28 C         143.4722  134.2500  157.4929 C.3     1  UNL1        0.1742
     29 O         144.0143  134.2542  156.0943 O.3     1  UNL1       -0.3496
@<TRIPOS>BOND
     1    28    29    1
     2    29    27    1
     3    27    26    1
     4    26    24    1
     5    24    21    1
     6    21    22    2
     7    21    23    2
     8    21     1    1
     9     1     2   ar
    10     2     3   ar
    11     3     4   ar
    12     4     7    1
    13     7     8   ar
    14     8     9   ar
    15     9    10   ar
    16    10    13    1
    17    13    14    1
    18    14    15    1
    19    15    16    1
    20    16    17    1
    21    17    18    1
    22    18    19    1
    23    19    20    1
    24    10    11   ar
    25    11    12   ar
    26     4     5   ar
    27     5     6   ar
    28     6     1   ar
    29    12     7   ar
    30    19    15    1
    31    24    25    1
