@<TRIPOS>MOLECULE
*****
 30 34 0 0 0
SMALL
GASTEIGER

@<TRIPOS>ATOM
      1 N         140.8429  139.0009  162.8767 N.3     1  UNL1       -0.2723
      2 C         140.4061  138.1292  164.0165 C.3     1  UNL1        0.0762
      3 C         140.7822  138.4895  165.4232 C.3     1  UNL1        0.0645
      4 C         141.5952  139.7215  165.6900 C.3     1  UNL1        0.1721
      5 C         142.0321  140.5932  164.5501 C.3     1  UNL1        0.0645
      6 C         141.6559  140.2329  163.1435 C.3     1  UNL1        0.0762
      7 N         141.9714  140.0818  167.0967 N.am    1  UNL1       -0.1258
      8 C         142.9158  139.3209  167.9792 C.2     1  UNL1        0.4188
      9 O         143.6500  138.0660  167.6101 O.2     1  UNL1       -0.2214
     10 N         142.9973  140.0351  169.2957 N.am    1  UNL1       -0.1366
     11 C         142.1032  141.2375  169.2268 C.2     1  UNL1        0.1415
     12 C         141.7845  142.3098  170.2261 C.3     1  UNL1        0.0810
     13 C         140.8317  143.4111  169.8663 C.2     1  UNL1        0.0307
     14 C         140.1976  143.4400  168.5072 C.2     1  UNL1        0.2316
     15 N         140.5163  142.3676  167.5079 N.2     1  UNL1       -0.0350
     16 C         141.4691  141.2664  167.8678 C.2     1  UNL1        0.3432
     17 C         140.4668  138.6406  161.4701 C.3     1  UNL1        0.0739
     18 C         139.1125  138.0647  161.1800 C.3     1  UNL1        0.0392
     19 C         137.9009  138.9489  161.2027 C.3     1  UNL1        0.0998
     20 O         138.2105  139.8787  158.3672 O.2     1  UNL1       -0.2705
     21 C         138.1899  140.8776  159.4861 C.2     1  UNL1        0.2739
     22 C         138.3240  142.3414  159.1872 C.3     1  UNL1        0.2900
     23 O         138.3034  143.3403  160.3060 O.3     1  UNL1       -0.4643
     24 C         138.1486  142.8754  161.7238 C.ar    1  UNL1        0.1528
     25 C         138.1279  143.8743  162.8426 C.ar    1  UNL1        0.0382
     26 C         137.9731  143.4094  164.2602 C.ar    1  UNL1        0.0032
     27 C         137.8389  141.9456  164.5591 C.ar    1  UNL1        0.0015
     28 C         137.8596  140.9467  163.4403 C.ar    1  UNL1        0.0180
     29 C         138.0144  141.4116  162.0227 C.ar    1  UNL1        0.0881
     30 N         138.0351  140.4127  160.9038 N.am    1  UNL1       -0.2529
@<TRIPOS>BOND
     1    20    21    2
     2    21    22    1
     3    22    23    1
     4    23    24    1
     5    24    25   ar
     6    25    26   ar
     7    26    27   ar
     8    27    28   ar
     9    28    29   ar
    10    29    30    1
    11    30    19    1
    12    19    18    1
    13    18    17    1
    14    17     1    1
    15     1     2    1
    16     2     3    1
    17     3     4    1
    18     4     7    1
    19     7     8   am
    20     8     9    2
    21     8    10    1
    22    10    11    2
    23    11    12    1
    24    12    13    1
    25    13    14    2
    26    14    15    1
    27    15    16    2
    28     4     5    1
    29     5     6    1
    30    30    21   am
    31     6     1    1
    32    29    24   ar
    33    16     7    1
    34    16    11    1
@<TRIPOS>MOLECULE
*****
 30 34 0 0 0
SMALL
GASTEIGER

@<TRIPOS>ATOM
      1 N         141.0674  138.6870  162.4975 N.3     1  UNL1       -0.2723
      2 C         140.6460  140.0659  162.9111 C.3     1  UNL1        0.0762
      3 C         140.2790  140.3412  164.3393 C.3     1  UNL1        0.0645
      4 C         140.3333  139.2376  165.3537 C.3     1  UNL1        0.1721
      5 C         140.7547  137.8587  164.9400 C.3     1  UNL1        0.0645
      6 C         141.1217  137.5834  163.5120 C.3     1  UNL1        0.0762
      7 N         139.9663  139.5129  166.7818 N.am    1  UNL1       -0.1258
      8 C         138.6303  139.2567  167.4138 C.2     1  UNL1        0.4188
      9 O         137.4268  138.6803  166.7288 O.2     1  UNL1       -0.2214
     10 N         138.7091  139.6781  168.8513 N.am    1  UNL1       -0.1366
     11 C         140.0938  140.1948  169.1076 C.2     1  UNL1        0.1415
     12 C         140.7474  140.7450  170.3404 C.3     1  UNL1        0.0810
     13 C         142.1783  141.1932  170.2943 C.2     1  UNL1        0.0307
     14 C         142.9553  141.0910  169.0152 C.2     1  UNL1        0.2316
     15 N         142.3015  140.5407  167.7824 N.2     1  UNL1       -0.0350
     16 C         140.8708  140.0926  167.8286 C.2     1  UNL1        0.3432
     17 C         141.4344  138.4118  161.0694 C.3     1  UNL1        0.0739
     18 C         142.6743  137.6298  160.7510 C.3     1  UNL1        0.0392
     19 C         144.0187  138.2902  160.8311 C.3     1  UNL1        0.0998
     20 O         143.8312  139.5810  158.1295 O.2     1  UNL1       -0.2705
     21 C         144.0374  140.4259  159.3517 C.2     1  UNL1        0.2739
     22 C         144.1498  141.9161  159.2231 C.3     1  UNL1        0.2900
     23 O         144.3560  142.7609  160.4453 O.3     1  UNL1       -0.4643
     24 C         144.4497  142.1155  161.7961 C.ar    1  UNL1        0.1528
     25 C         144.6559  142.9604  163.0183 C.ar    1  UNL1        0.0382
     26 C         144.7497  142.3150  164.3690 C.ar    1  UNL1        0.0032
     27 C         144.6373  140.8247  164.4976 C.ar    1  UNL1        0.0015
     28 C         144.4311  139.9799  163.2755 C.ar    1  UNL1        0.0180
     29 C         144.3373  140.6253  161.9247 C.ar    1  UNL1        0.0881
     30 N         144.1311  139.7805  160.7025 N.am    1  UNL1       -0.2529
@<TRIPOS>BOND
     1    20    21    2
     2    21    22    1
     3    22    23    1
     4    23    24    1
     5    24    25   ar
     6    25    26   ar
     7    26    27   ar
     8    27    28   ar
     9    28    29   ar
    10    29    30    1
    11    30    19    1
    12    19    18    1
    13    18    17    1
    14    17     1    1
    15     1     2    1
    16     2     3    1
    17     3     4    1
    18     4     7    1
    19     7     8   am
    20     8     9    2
    21     8    10    1
    22    10    11    2
    23    11    12    1
    24    12    13    1
    25    13    14    2
    26    14    15    1
    27    15    16    2
    28     4     5    1
    29     5     6    1
    30    30    21   am
    31     6     1    1
    32    29    24   ar
    33    16     7    1
    34    16    11    1
@<TRIPOS>MOLECULE
*****
 30 34 0 0 0
SMALL
GASTEIGER

@<TRIPOS>ATOM
      1 N         138.5596  139.8232  164.3047 N.3     1  UNL1       -0.2723
      2 C         138.2285  138.8648  165.4100 C.3     1  UNL1        0.0762
      3 C         138.6907  139.1450  166.8092 C.3     1  UNL1        0.0645
      4 C         139.4841  140.3837  167.1031 C.3     1  UNL1        0.1721
      5 C         139.8151  141.3421  165.9977 C.3     1  UNL1        0.0645
      6 C         139.3529  141.0619  164.5985 C.3     1  UNL1        0.0762
      7 N         139.9463  140.6639  168.5023 N.am    1  UNL1       -0.1258
      8 C         139.2010  140.3301  169.7605 C.2     1  UNL1        0.4188
      9 O         137.8627  139.6574  169.8405 O.2     1  UNL1       -0.2214
     10 N         140.0291  140.7871  170.9248 N.am    1  UNL1       -0.1366
     11 C         141.2861  141.4033  170.3861 C.2     1  UNL1        0.1415
     12 C         142.4706  142.0239  171.0656 C.3     1  UNL1        0.0810
     13 C         143.6042  142.5684  170.2478 C.2     1  UNL1        0.0307
     14 C         143.5530  142.4923  168.7505 C.2     1  UNL1        0.2316
     15 N         142.3684  141.8717  168.0711 N.2     1  UNL1       -0.0350
     16 C         141.2349  141.3272  168.8889 C.2     1  UNL1        0.3432
     17 C         138.0974  139.5429  162.9055 C.3     1  UNL1        0.0739
     18 C         138.3437  138.1976  162.2895 C.3     1  UNL1        0.0392
     19 C         139.6826  137.5380  162.4392 C.3     1  UNL1        0.0998
     20 O         140.1488  138.5383  159.6495 O.2     1  UNL1       -0.2705
     21 C         141.1670  138.7990  160.7198 C.2     1  UNL1        0.2739
     22 C         142.4183  139.5598  160.3951 C.3     1  UNL1        0.2900
     23 O         143.4365  139.8204  161.4653 O.3     1  UNL1       -0.4643
     24 C         143.2035  139.3203  162.8602 C.ar    1  UNL1        0.1528
     25 C         144.2217  139.5809  163.9303 C.ar    1  UNL1        0.0382
     26 C         143.9886  139.0808  165.3251 C.ar    1  UNL1        0.0032
     27 C         142.7373  138.3200  165.6497 C.ar    1  UNL1        0.0015
     28 C         141.7190  138.0593  164.5796 C.ar    1  UNL1        0.0180
     29 C         141.9522  138.5595  163.1848 C.ar    1  UNL1        0.0881
     30 N         140.9339  138.2988  162.1145 N.am    1  UNL1       -0.2529
@<TRIPOS>BOND
     1    20    21    2
     2    21    22    1
     3    22    23    1
     4    23    24    1
     5    24    25   ar
     6    25    26   ar
     7    26    27   ar
     8    27    28   ar
     9    28    29   ar
    10    29    30    1
    11    30    19    1
    12    19    18    1
    13    18    17    1
    14    17     1    1
    15     1     2    1
    16     2     3    1
    17     3     4    1
    18     4     7    1
    19     7     8   am
    20     8     9    2
    21     8    10    1
    22    10    11    2
    23    11    12    1
    24    12    13    1
    25    13    14    2
    26    14    15    1
    27    15    16    2
    28     4     5    1
    29     5     6    1
    30    30    21   am
    31     6     1    1
    32    29    24   ar
    33    16     7    1
    34    16    11    1
@<TRIPOS>MOLECULE
*****
 30 34 0 0 0
SMALL
GASTEIGER

@<TRIPOS>ATOM
      1 N         142.9305  139.5227  163.0125 N.3     1  UNL1       -0.2723
      2 C         141.6187  140.2472  163.0772 C.3     1  UNL1        0.0762
      3 C         140.8717  140.3314  164.3752 C.3     1  UNL1        0.0645
      4 C         141.4364  139.6910  165.6085 C.3     1  UNL1        0.1721
      5 C         142.7483  138.9665  165.5437 C.3     1  UNL1        0.0645
      6 C         143.4953  138.8823  164.2457 C.3     1  UNL1        0.0762
      7 N         140.6894  139.7752  166.9065 N.am    1  UNL1       -0.1258
      8 C         139.2349  139.4690  167.1081 C.2     1  UNL1        0.4188
      9 O         138.2720  139.0250  166.0471 O.2     1  UNL1       -0.2214
     10 N         138.9123  139.6849  168.5570 N.am    1  UNL1       -0.1366
     11 C         140.1674  140.1244  169.2509 C.2     1  UNL1        0.1415
     12 C         140.4520  140.4811  170.6798 C.3     1  UNL1        0.0810
     13 C         141.8351  140.8935  171.0887 C.2     1  UNL1        0.0307
     14 C         142.9335  140.9493  170.0685 C.2     1  UNL1        0.2316
     15 N         142.6488  140.5927  168.6396 N.2     1  UNL1       -0.0350
     16 C         141.2657  140.1802  168.2308 C.2     1  UNL1        0.3432
     17 C         143.6776  139.4385  161.7145 C.3     1  UNL1        0.0739
     18 C         143.6231  140.5796  160.7424 C.3     1  UNL1        0.0392
     19 C         144.3920  141.8376  161.0187 C.3     1  UNL1        0.0998
     20 O         146.1548  141.4273  163.4113 O.2     1  UNL1       -0.2705
     21 C         145.0192  142.4053  163.4752 C.2     1  UNL1        0.2739
     22 C         144.7650  143.1782  164.7354 C.3     1  UNL1        0.2900
     23 O         143.6295  144.1561  164.7993 O.3     1  UNL1       -0.4643
     24 C         142.7481  144.3613  163.6030 C.ar    1  UNL1        0.1528
     25 C         141.6126  145.3393  163.6670 C.ar    1  UNL1        0.0382
     26 C         140.7312  145.5444  162.4707 C.ar    1  UNL1        0.0032
     27 C         140.9854  144.7715  161.2105 C.ar    1  UNL1        0.0015
     28 C         142.1209  143.7936  161.1466 C.ar    1  UNL1        0.0180
     29 C         143.0023  143.5885  162.3428 C.ar    1  UNL1        0.0881
     30 N         144.1379  142.6104  162.2789 N.am    1  UNL1       -0.2529
@<TRIPOS>BOND
     1    20    21    2
     2    21    22    1
     3    22    23    1
     4    23    24    1
     5    24    25   ar
     6    25    26   ar
     7    26    27   ar
     8    27    28   ar
     9    28    29   ar
    10    29    30    1
    11    30    19    1
    12    19    18    1
    13    18    17    1
    14    17     1    1
    15     1     2    1
    16     2     3    1
    17     3     4    1
    18     4     7    1
    19     7     8   am
    20     8     9    2
    21     8    10    1
    22    10    11    2
    23    11    12    1
    24    12    13    1
    25    13    14    2
    26    14    15    1
    27    15    16    2
    28     4     5    1
    29     5     6    1
    30    30    21   am
    31     6     1    1
    32    29    24   ar
    33    16     7    1
    34    16    11    1
@<TRIPOS>MOLECULE
*****
 30 34 0 0 0
SMALL
GASTEIGER

@<TRIPOS>ATOM
      1 N         142.7400  141.5910  162.7967 N.3     1  UNL1       -0.2723
      2 C         141.5376  140.8385  163.2845 C.3     1  UNL1        0.0762
      3 C         141.4151  140.4800  164.7359 C.3     1  UNL1        0.0645
      4 C         142.4951  140.8739  165.6994 C.3     1  UNL1        0.1721
      5 C         143.6976  141.6265  165.2116 C.3     1  UNL1        0.0645
      6 C         143.8200  141.9850  163.7602 C.3     1  UNL1        0.0762
      7 N         142.3727  140.5154  167.1508 N.am    1  UNL1       -0.1258
      8 C         142.9301  139.2863  167.8053 C.2     1  UNL1        0.4188
      9 O         143.7077  138.1998  167.1235 O.2     1  UNL1       -0.2214
     10 N         142.5733  139.3343  169.2615 N.am    1  UNL1       -0.1366
     11 C         141.7954  140.5932  169.5069 C.2     1  UNL1        0.1415
     12 C         141.1840  141.1689  170.7497 C.3     1  UNL1        0.0810
     13 C         140.4485  142.4749  170.6880 C.2     1  UNL1        0.0307
     14 C         140.3245  143.2049  169.3834 C.2     1  UNL1        0.2316
     15 N         140.9360  142.6290  168.1406 N.2     1  UNL1       -0.0350
     16 C         141.6714  141.3231  168.2024 C.2     1  UNL1        0.3432
     17 C         142.8624  141.9495  161.3453 C.3     1  UNL1        0.0739
     18 C         143.0880  143.3765  160.9417 C.3     1  UNL1        0.0392
     19 C         141.9345  144.3343  160.8963 C.3     1  UNL1        0.0998
     20 O         140.6672  143.0974  158.4747 O.2     1  UNL1       -0.2705
     21 C         139.8942  143.1998  159.7562 C.2     1  UNL1        0.2739
     22 C         138.4875  142.6837  159.8268 C.3     1  UNL1        0.2900
     23 O         137.7145  142.7861  161.1082 O.3     1  UNL1       -0.4643
     24 C         138.3482  143.4045  162.3191 C.ar    1  UNL1        0.1528
     25 C         137.5752  143.5069  163.6004 C.ar    1  UNL1        0.0382
     26 C         138.2089  144.1253  164.8112 C.ar    1  UNL1        0.0032
     27 C         139.6155  144.6414  164.7405 C.ar    1  UNL1        0.0015
     28 C         140.3885  144.5391  163.4592 C.ar    1  UNL1        0.0180
     29 C         139.7548  143.9206  162.2484 C.ar    1  UNL1        0.0881
     30 N         140.5278  143.8183  160.9670 N.am    1  UNL1       -0.2529
@<TRIPOS>BOND
     1    20    21    2
     2    21    22    1
     3    22    23    1
     4    23    24    1
     5    24    25   ar
     6    25    26   ar
     7    26    27   ar
     8    27    28   ar
     9    28    29   ar
    10    29    30    1
    11    30    19    1
    12    19    18    1
    13    18    17    1
    14    17     1    1
    15     1     2    1
    16     2     3    1
    17     3     4    1
    18     4     7    1
    19     7     8   am
    20     8     9    2
    21     8    10    1
    22    10    11    2
    23    11    12    1
    24    12    13    1
    25    13    14    2
    26    14    15    1
    27    15    16    2
    28     4     5    1
    29     5     6    1
    30    30    21   am
    31     6     1    1
    32    29    24   ar
    33    16     7    1
    34    16    11    1
@<TRIPOS>MOLECULE
*****
 30 34 0 0 0
SMALL
GASTEIGER

@<TRIPOS>ATOM
      1 N         142.2293  141.7944  162.7293 N.3     1  UNL1       -0.2723
      2 C         141.8774  140.3553  162.9646 C.3     1  UNL1        0.0762
      3 C         141.3286  139.9249  164.2926 C.3     1  UNL1        0.0645
      4 C         141.1317  140.9335  165.3853 C.3     1  UNL1        0.1721
      5 C         141.4837  142.3725  165.1500 C.3     1  UNL1        0.0645
      6 C         142.0324  142.8029  163.8220 C.3     1  UNL1        0.0762
      7 N         140.5830  140.5030  166.7133 N.am    1  UNL1       -0.1258
      8 C         139.2336  139.8937  166.9540 C.2     1  UNL1        0.4188
      9 O         138.1961  139.6078  165.9091 O.2     1  UNL1       -0.2214
     10 N         139.1039  139.6205  168.4232 N.am    1  UNL1       -0.1366
     11 C         140.3731  140.0609  169.0905 C.2     1  UNL1        0.1415
     12 C         140.8144  140.0357  170.5238 C.3     1  UNL1        0.0810
     13 C         142.1699  140.5560  170.9004 C.2     1  UNL1        0.0307
     14 C         143.0841  141.1015  169.8436 C.2     1  UNL1        0.2316
     15 N         142.6427  141.1267  168.4102 N.2     1  UNL1       -0.0350
     16 C         141.2872  140.6064  168.0337 C.2     1  UNL1        0.3432
     17 C         142.7781  142.2248  161.4013 C.3     1  UNL1        0.0739
     18 C         142.0420  141.8840  160.1396 C.3     1  UNL1        0.0392
     19 C         140.7756  142.6085  159.7911 C.3     1  UNL1        0.0998
     20 O         141.6329  145.4764  159.5914 O.2     1  UNL1       -0.2705
     21 C         140.6391  145.0616  160.6356 C.2     1  UNL1        0.2739
     22 C         140.0740  146.0808  161.5800 C.3     1  UNL1        0.2900
     23 O         139.0802  145.6661  162.6242 O.3     1  UNL1       -0.4643
     24 C         138.6515  144.2321  162.7241 C.ar    1  UNL1        0.1528
     25 C         137.6578  143.8173  163.7683 C.ar    1  UNL1        0.0382
     26 C         137.2292  142.3834  163.8681 C.ar    1  UNL1        0.0032
     27 C         137.7943  141.3642  162.9237 C.ar    1  UNL1        0.0015
     28 C         138.7880  141.7789  161.8795 C.ar    1  UNL1        0.0180
     29 C         139.2167  143.2129  161.7797 C.ar    1  UNL1        0.0881
     30 N         140.2105  143.6277  160.7355 N.am    1  UNL1       -0.2529
@<TRIPOS>BOND
     1    20    21    2
     2    21    22    1
     3    22    23    1
     4    23    24    1
     5    24    25   ar
     6    25    26   ar
     7    26    27   ar
     8    27    28   ar
     9    28    29   ar
    10    29    30    1
    11    30    19    1
    12    19    18    1
    13    18    17    1
    14    17     1    1
    15     1     2    1
    16     2     3    1
    17     3     4    1
    18     4     7    1
    19     7     8   am
    20     8     9    2
    21     8    10    1
    22    10    11    2
    23    11    12    1
    24    12    13    1
    25    13    14    2
    26    14    15    1
    27    15    16    2
    28     4     5    1
    29     5     6    1
    30    30    21   am
    31     6     1    1
    32    29    24   ar
    33    16     7    1
    34    16    11    1
@<TRIPOS>MOLECULE
*****
 30 34 0 0 0
SMALL
GASTEIGER

@<TRIPOS>ATOM
      1 N         141.9296  139.1030  161.8131 N.3     1  UNL1       -0.2723
      2 C         141.7995  140.5970  161.8411 C.3     1  UNL1        0.0762
      3 C         142.1344  141.3557  163.0910 C.3     1  UNL1        0.0645
      4 C         142.5994  140.6203  164.3129 C.3     1  UNL1        0.1721
      5 C         142.7295  139.1262  164.2848 C.3     1  UNL1        0.0645
      6 C         142.3946  138.3676  163.0349 C.3     1  UNL1        0.0762
      7 N         142.9343  141.3790  165.5627 N.am    1  UNL1       -0.1258
      8 C         143.8787  142.5400  165.6630 C.2     1  UNL1        0.4188
      9 O         144.6540  143.1463  164.5311 O.2     1  UNL1       -0.2214
     10 N         143.9117  142.9884  167.0940 N.am    1  UNL1       -0.1366
     11 C         142.9877  142.1045  167.8782 C.2     1  UNL1        0.1415
     12 C         142.6184  142.0769  169.3317 C.3     1  UNL1        0.0810
     13 C         141.6449  141.0546  169.8389 C.2     1  UNL1        0.0307
     14 C         141.0408  140.0598  168.8925 C.2     1  UNL1        0.2316
     15 N         141.4102  140.0875  167.4389 N.2     1  UNL1       -0.0350
     16 C         142.3836  141.1098  166.9318 C.2     1  UNL1        0.3432
     17 C         141.5947  138.3443  160.5632 C.3     1  UNL1        0.0739
     18 C         140.2742  138.5610  159.8854 C.3     1  UNL1        0.0392
     19 C         138.9990  138.4010  160.6590 C.3     1  UNL1        0.0998
     20 O         138.1948  141.1172  159.6711 O.2     1  UNL1       -0.2705
     21 C         138.1738  140.8170  161.1406 C.2     1  UNL1        0.2739
     22 C         137.7507  141.8750  162.1162 C.3     1  UNL1        0.2900
     23 O         137.7296  141.5749  163.5857 O.3     1  UNL1       -0.4643
     24 C         138.1317  140.2168  164.0797 C.ar    1  UNL1        0.1528
     25 C         138.1107  139.9167  165.5492 C.ar    1  UNL1        0.0382
     26 C         138.5127  138.5586  166.0431 C.ar    1  UNL1        0.0032
     27 C         138.9358  137.5007  165.0676 C.ar    1  UNL1        0.0015
     28 C         138.9569  137.8008  163.5981 C.ar    1  UNL1        0.0180
     29 C         138.5548  139.1588  163.1041 C.ar    1  UNL1        0.0881
     30 N         138.5759  139.4590  161.6346 N.am    1  UNL1       -0.2529
@<TRIPOS>BOND
     1    20    21    2
     2    21    22    1
     3    22    23    1
     4    23    24    1
     5    24    25   ar
     6    25    26   ar
     7    26    27   ar
     8    27    28   ar
     9    28    29   ar
    10    29    30    1
    11    30    19    1
    12    19    18    1
    13    18    17    1
    14    17     1    1
    15     1     2    1
    16     2     3    1
    17     3     4    1
    18     4     7    1
    19     7     8   am
    20     8     9    2
    21     8    10    1
    22    10    11    2
    23    11    12    1
    24    12    13    1
    25    13    14    2
    26    14    15    1
    27    15    16    2
    28     4     5    1
    29     5     6    1
    30    30    21   am
    31     6     1    1
    32    29    24   ar
    33    16     7    1
    34    16    11    1
@<TRIPOS>MOLECULE
*****
 30 34 0 0 0
SMALL
GASTEIGER

@<TRIPOS>ATOM
      1 N         139.2300  140.0089  162.4994 N.3     1  UNL1       -0.2723
      2 C         138.0609  140.0776  163.4367 C.3     1  UNL1        0.0762
      3 C         138.2900  140.1512  164.9174 C.3     1  UNL1        0.0645
      4 C         139.6882  140.1561  165.4606 C.3     1  UNL1        0.1721
      5 C         140.8573  140.0874  164.5232 C.3     1  UNL1        0.0645
      6 C         140.6281  140.0138  163.0427 C.3     1  UNL1        0.0762
      7 N         139.9173  140.2297  166.9411 N.am    1  UNL1       -0.1258
      8 C         139.0620  139.5966  167.9982 C.2     1  UNL1        0.4188
      9 O         137.8273  138.7787  167.7604 O.2     1  UNL1       -0.2214
     10 N         139.6580  139.9249  169.3349 N.am    1  UNL1       -0.1366
     11 C         140.8819  140.7610  169.1040 C.2     1  UNL1        0.1415
     12 C         141.8709  141.3751  170.0498 C.3     1  UNL1        0.0810
     13 C         143.0204  142.1776  169.5161 C.2     1  UNL1        0.0307
     14 C         143.1806  142.3660  168.0365 C.2     1  UNL1        0.2316
     15 N         142.1915  141.7519  167.0908 N.2     1  UNL1       -0.0350
     16 C         141.0421  140.9494  167.6246 C.2     1  UNL1        0.3432
     17 C         139.0008  139.9353  161.0189 C.3     1  UNL1        0.0739
     18 C         138.0693  140.9056  160.3550 C.3     1  UNL1        0.0392
     19 C         138.4888  142.3321  160.1567 C.3     1  UNL1        0.0998
     20 O         141.2629  142.2389  159.0184 O.2     1  UNL1       -0.2705
     21 C         141.0268  142.8445  160.3703 C.2     1  UNL1        0.2739
     22 C         142.1778  143.4035  161.1531 C.3     1  UNL1        0.2900
     23 O         141.9418  144.0091  162.5049 O.3     1  UNL1       -0.4643
     24 C         140.5547  144.0557  163.0741 C.ar    1  UNL1        0.1528
     25 C         140.3187  144.6612  164.4259 C.ar    1  UNL1        0.0382
     26 C         138.9317  144.7078  164.9950 C.ar    1  UNL1        0.0032
     27 C         137.7807  144.1488  164.2123 C.ar    1  UNL1        0.0015
     28 C         138.0167  143.5432  162.8604 C.ar    1  UNL1        0.0180
     29 C         139.4037  143.4967  162.2913 C.ar    1  UNL1        0.0881
     30 N         139.6398  142.8911  160.9394 N.am    1  UNL1       -0.2529
@<TRIPOS>BOND
     1    20    21    2
     2    21    22    1
     3    22    23    1
     4    23    24    1
     5    24    25   ar
     6    25    26   ar
     7    26    27   ar
     8    27    28   ar
     9    28    29   ar
    10    29    30    1
    11    30    19    1
    12    19    18    1
    13    18    17    1
    14    17     1    1
    15     1     2    1
    16     2     3    1
    17     3     4    1
    18     4     7    1
    19     7     8   am
    20     8     9    2
    21     8    10    1
    22    10    11    2
    23    11    12    1
    24    12    13    1
    25    13    14    2
    26    14    15    1
    27    15    16    2
    28     4     5    1
    29     5     6    1
    30    30    21   am
    31     6     1    1
    32    29    24   ar
    33    16     7    1
    34    16    11    1
@<TRIPOS>MOLECULE
*****
 30 34 0 0 0
SMALL
GASTEIGER

@<TRIPOS>ATOM
      1 N         139.2431  138.3751  164.6420 N.3     1  UNL1       -0.2723
      2 C         138.1037  138.7917  165.5241 C.3     1  UNL1        0.0762
      3 C         138.3787  139.4423  166.8475 C.3     1  UNL1        0.0645
      4 C         139.7932  139.6763  167.2886 C.3     1  UNL1        0.1721
      5 C         140.9326  139.2596  166.4064 C.3     1  UNL1        0.0645
      6 C         140.6576  138.6091  165.0832 C.3     1  UNL1        0.0762
      7 N         140.0682  140.3268  168.6119 N.am    1  UNL1       -0.1258
      8 C         139.1915  140.2585  169.8271 C.2     1  UNL1        0.4188
      9 O         137.8858  139.5278  169.9323 O.2     1  UNL1       -0.2214
     10 N         139.8497  141.0494  170.9186 N.am    1  UNL1       -0.1366
     11 C         141.1333  141.6064  170.3780 C.2     1  UNL1        0.1415
     12 C         142.1964  142.4626  170.9997 C.3     1  UNL1        0.0810
     13 C         143.3948  142.8722  170.1958 C.2     1  UNL1        0.0307
     14 C         143.5299  142.4256  168.7701 C.2     1  UNL1        0.2316
     15 N         142.4666  141.5694  168.1484 N.2     1  UNL1       -0.0350
     16 C         141.2683  141.1598  168.9524 C.2     1  UNL1        0.3432
     17 C         138.9681  137.7246  163.3187 C.3     1  UNL1        0.0739
     18 C         139.6857  138.1947  162.0883 C.3     1  UNL1        0.0392
     19 C         139.5706  139.6258  161.6536 C.3     1  UNL1        0.0998
     20 O         142.4976  139.6243  160.9956 O.2     1  UNL1       -0.2705
     21 C         141.9371  140.6646  161.9196 C.2     1  UNL1        0.2739
     22 C         142.8401  141.7041  162.5146 C.3     1  UNL1        0.2900
     23 O         142.2796  142.7443  163.4386 O.3     1  UNL1       -0.4643
     24 C         140.8161  142.7450  163.7677 C.ar    1  UNL1        0.1528
     25 C         140.2557  143.7852  164.6917 C.ar    1  UNL1        0.0382
     26 C         138.7922  143.7859  165.0207 C.ar    1  UNL1        0.0032
     27 C         137.8892  142.7464  164.4257 C.ar    1  UNL1        0.0015
     28 C         138.4497  141.7062  163.5017 C.ar    1  UNL1        0.0180
     29 C         139.9131  141.7055  163.1727 C.ar    1  UNL1        0.0881
     30 N         140.4736  140.6653  162.2486 N.am    1  UNL1       -0.2529
@<TRIPOS>BOND
     1    20    21    2
     2    21    22    1
     3    22    23    1
     4    23    24    1
     5    24    25   ar
     6    25    26   ar
     7    26    27   ar
     8    27    28   ar
     9    28    29   ar
    10    29    30    1
    11    30    19    1
    12    19    18    1
    13    18    17    1
    14    17     1    1
    15     1     2    1
    16     2     3    1
    17     3     4    1
    18     4     7    1
    19     7     8   am
    20     8     9    2
    21     8    10    1
    22    10    11    2
    23    11    12    1
    24    12    13    1
    25    13    14    2
    26    14    15    1
    27    15    16    2
    28     4     5    1
    29     5     6    1
    30    30    21   am
    31     6     1    1
    32    29    24   ar
    33    16     7    1
    34    16    11    1
