@<TRIPOS>MOLECULE
*****
 33 37 0 0 0
SMALL
GASTEIGER

@<TRIPOS>ATOM
      1 C         138.1456  139.6854  169.7069 C.ar    1  UNL1        0.1721
      2 C         137.7930  139.0115  168.4141 C.ar    1  UNL1        0.0356
      3 C         138.6642  139.2004  167.2078 C.ar    1  UNL1       -0.0203
      4 C         139.8881  140.0633  167.2943 C.ar    1  UNL1       -0.0081
      5 C         140.2407  140.7373  168.5871 C.ar    1  UNL1        0.0368
      6 C         139.3695  140.5483  169.7934 C.ar    1  UNL1        0.1721
      7 C         140.7593  140.2522  166.0879 C.3     1  UNL1        0.0845
      8 C         141.9832  141.1151  166.1744 C.3     1  UNL1        0.0466
      9 C         142.8544  141.3041  164.9681 C.ar    1  UNL1       -0.0201
     10 C         144.0784  142.1670  165.0546 C.ar    1  UNL1       -0.0012
     11 C         144.9496  142.3560  163.8483 C.ar    1  UNL1        0.0397
     12 C         144.5969  141.6819  162.5554 C.ar    1  UNL1        0.1721
     13 C         143.3731  140.8190  162.4689 C.ar    1  UNL1        0.1693
     14 C         142.5018  140.6301  163.6753 C.ar    1  UNL1        0.0257
     15 C         141.2780  139.7672  163.5888 C.3     1  UNL1        0.0875
     16 N         140.4067  139.5783  164.7951 N.3     1  UNL1       -0.2670
     17 C         139.1828  138.7153  164.7086 C.3     1  UNL1        0.0773
     18 C         138.3116  138.5264  165.9149 C.3     1  UNL1        0.0435
     19 C         136.2304  138.4195  170.9232 C.3     1  UNL1        0.2526
     20 O         137.2743  139.4965  170.9133 O.3     1  UNL1       -0.4684
     21 O         139.7221  141.2224  171.0863 O.3     1  UNL1       -0.4684
     22 C         140.8343  142.2279  171.1288 C.3     1  UNL1        0.2526
     23 O         145.4682  141.8709  161.3491 O.3     1  UNL1       -0.4684
     24 C         144.9743  142.6801  160.1866 C.3     1  UNL1        0.2526
     25 O         143.0205  140.1451  161.1761 O.3     1  UNL1       -0.4687
     26 C         143.9098  139.0712  160.6232 C.3     1  UNL1        0.2526
     27 C         140.9253  139.0932  162.2960 C.3     1  UNL1        0.0469
     28 C         139.9975  139.7658  161.3282 C.ar    1  UNL1       -0.0205
     29 C         139.6819  139.1134  160.0149 C.ar    1  UNL1       -0.0042
     30 C         138.7540  139.7862  159.0470 C.ar    1  UNL1       -0.0003
     31 C         138.1419  141.1112  159.3926 C.ar    1  UNL1       -0.0000
     32 C         138.4575  141.7636  160.7059 C.ar    1  UNL1       -0.0003
     33 C         139.3853  141.0910  161.6736 C.ar    1  UNL1       -0.0042
@<TRIPOS>BOND
     1    19    20    1
     2    20     1    1
     3     1     2   ar
     4     2     3   ar
     5     3     4   ar
     6     4     5   ar
     7     5     6   ar
     8     6    21    1
     9    21    22    1
    10     4     7    1
    11     7     8    1
    12     8     9    1
    13     9    10   ar
    14    10    11   ar
    15    11    12   ar
    16    12    23    1
    17    23    24    1
    18    12    13   ar
    19    13    25    1
    20    25    26    1
    21    13    14   ar
    22    14    15    1
    23    15    27    1
    24    27    28    1
    25    28    29   ar
    26    29    30   ar
    27    30    31   ar
    28    31    32   ar
    29    32    33   ar
    30    15    16    1
    31    16    17    1
    32    17    18    1
    33     6     1   ar
    34    16     7    1
    35    18     3    1
    36    14     9   ar
    37    33    28   ar
@<TRIPOS>MOLECULE
*****
 33 37 0 0 0
SMALL
GASTEIGER

@<TRIPOS>ATOM
      1 C         139.6075  145.1610  156.4375 C.ar    1  UNL1        0.1721
      2 C         140.3425  145.5803  157.6760 C.ar    1  UNL1        0.0356
      3 C         140.3569  144.6845  158.8790 C.ar    1  UNL1       -0.0203
      4 C         139.6362  143.3694  158.8436 C.ar    1  UNL1       -0.0081
      5 C         138.9012  142.9502  157.6051 C.ar    1  UNL1        0.0368
      6 C         138.8869  143.8460  156.4020 C.ar    1  UNL1        0.1721
      7 C         139.6506  142.4736  160.0466 C.3     1  UNL1        0.0845
      8 C         138.9300  141.1586  160.0112 C.3     1  UNL1        0.0466
      9 C         138.9443  140.2628  161.2142 C.ar    1  UNL1       -0.0201
     10 C         138.2236  138.9477  161.1787 C.ar    1  UNL1       -0.0012
     11 C         138.2380  138.0519  162.3817 C.ar    1  UNL1        0.0397
     12 C         138.9730  138.4712  163.6203 C.ar    1  UNL1        0.1721
     13 C         139.6937  139.7862  163.6558 C.ar    1  UNL1        0.1693
     14 C         139.6793  140.6820  162.4527 C.ar    1  UNL1        0.0257
     15 C         140.3999  141.9971  162.4882 C.3     1  UNL1        0.0875
     16 N         140.3856  142.8929  161.2852 N.3     1  UNL1       -0.2670
     17 C         141.1063  144.2080  161.3207 C.3     1  UNL1        0.0773
     18 C         141.0919  145.1038  160.1176 C.3     1  UNL1        0.0435
     19 C         138.8941  147.3826  155.2948 C.3     1  UNL1        0.2526
     20 O         139.5932  146.0568  155.2344 O.3     1  UNL1       -0.4684
     21 O         138.1518  143.4267  155.1634 O.3     1  UNL1       -0.4684
     22 C         136.6633  143.5924  155.0824 C.3     1  UNL1        0.2526
     23 O         138.9874  137.5754  164.8234 O.3     1  UNL1       -0.4684
     24 C         138.1940  137.9435  166.0421 C.3     1  UNL1        0.2526
     25 O         140.4287  140.2055  164.8943 O.3     1  UNL1       -0.4687
     26 C         141.5417  139.3545  165.4302 C.3     1  UNL1        0.2526
     27 C         141.1350  142.4164  163.7268 C.3     1  UNL1        0.0469
     28 C         142.6263  142.2722  163.7989 C.ar    1  UNL1       -0.0205
     29 C         143.3434  141.3953  162.8157 C.ar    1  UNL1       -0.0042
     30 C         144.8348  141.2511  162.8879 C.ar    1  UNL1       -0.0003
     31 C         145.6089  141.9838  163.9432 C.ar    1  UNL1       -0.0000
     32 C         144.8917  142.8607  164.9264 C.ar    1  UNL1       -0.0003
     33 C         143.4005  143.0049  164.8543 C.ar    1  UNL1       -0.0042
@<TRIPOS>BOND
     1    19    20    1
     2    20     1    1
     3     1     2   ar
     4     2     3   ar
     5     3     4   ar
     6     4     5   ar
     7     5     6   ar
     8     6    21    1
     9    21    22    1
    10     4     7    1
    11     7     8    1
    12     8     9    1
    13     9    10   ar
    14    10    11   ar
    15    11    12   ar
    16    12    23    1
    17    23    24    1
    18    12    13   ar
    19    13    25    1
    20    25    26    1
    21    13    14   ar
    22    14    15    1
    23    15    27    1
    24    27    28    1
    25    28    29   ar
    26    29    30   ar
    27    30    31   ar
    28    31    32   ar
    29    32    33   ar
    30    15    16    1
    31    16    17    1
    32    17    18    1
    33     6     1   ar
    34    16     7    1
    35    18     3    1
    36    14     9   ar
    37    33    28   ar
@<TRIPOS>MOLECULE
*****
 33 37 0 0 0
SMALL
GASTEIGER

@<TRIPOS>ATOM
      1 C         143.6907  138.8194  156.2445 C.ar    1  UNL1        0.1721
      2 C         143.7189  140.1910  156.8509 C.ar    1  UNL1        0.0356
      3 C         143.0189  140.4504  158.1519 C.ar    1  UNL1       -0.0203
      4 C         142.2906  139.3382  158.8465 C.ar    1  UNL1       -0.0081
      5 C         142.2624  137.9665  158.2401 C.ar    1  UNL1        0.0368
      6 C         142.9625  137.7072  156.9390 C.ar    1  UNL1        0.1721
      7 C         141.5906  139.5975  160.1475 C.3     1  UNL1        0.0845
      8 C         140.8623  138.4853  160.8421 C.3     1  UNL1        0.0466
      9 C         140.1623  138.7447  162.1431 C.ar    1  UNL1       -0.0201
     10 C         139.4340  137.6323  162.8377 C.ar    1  UNL1       -0.0012
     11 C         138.7340  137.8917  164.1388 C.ar    1  UNL1        0.0397
     12 C         138.7622  139.2634  164.7452 C.ar    1  UNL1        0.1721
     13 C         139.4904  140.3757  164.0506 C.ar    1  UNL1        0.1693
     14 C         140.1905  140.1163  162.7496 C.ar    1  UNL1        0.0257
     15 C         140.9187  141.2285  162.0550 C.3     1  UNL1        0.0875
     16 N         141.6188  140.9692  160.7539 N.3     1  UNL1       -0.2670
     17 C         142.3470  142.0815  160.0593 C.3     1  UNL1        0.0773
     18 C         143.0471  141.8221  158.7583 C.3     1  UNL1        0.0435
     19 C         144.8286  139.7096  154.0851 C.3     1  UNL1        0.2526
     20 O         144.3908  138.5600  154.9434 O.3     1  UNL1       -0.4684
     21 O         142.9342  136.3354  156.3326 O.3     1  UNL1       -0.4684
     22 C         143.2682  135.1376  157.1714 C.3     1  UNL1        0.2526
     23 O         138.0621  139.5228  166.0462 O.3     1  UNL1       -0.4684
     24 C         137.6500  138.3739  166.9182 C.3     1  UNL1        0.2526
     25 O         139.5186  141.7473  164.6570 O.3     1  UNL1       -0.4687
     26 C         138.2746  142.5852  164.6748 C.3     1  UNL1        0.2526
     27 C         140.9469  142.6003  162.6614 C.3     1  UNL1        0.0469
     28 C         142.1401  143.0455  163.4539 C.ar    1  UNL1       -0.0205
     29 C         142.9438  142.0423  164.2270 C.ar    1  UNL1       -0.0042
     30 C         144.1370  142.4876  165.0196 C.ar    1  UNL1       -0.0003
     31 C         144.5264  143.9360  165.0391 C.ar    1  UNL1       -0.0000
     32 C         143.7226  144.9392  164.2661 C.ar    1  UNL1       -0.0003
     33 C         142.5295  144.4940  163.4735 C.ar    1  UNL1       -0.0042
@<TRIPOS>BOND
     1    19    20    1
     2    20     1    1
     3     1     2   ar
     4     2     3   ar
     5     3     4   ar
     6     4     5   ar
     7     5     6   ar
     8     6    21    1
     9    21    22    1
    10     4     7    1
    11     7     8    1
    12     8     9    1
    13     9    10   ar
    14    10    11   ar
    15    11    12   ar
    16    12    23    1
    17    23    24    1
    18    12    13   ar
    19    13    25    1
    20    25    26    1
    21    13    14   ar
    22    14    15    1
    23    15    27    1
    24    27    28    1
    25    28    29   ar
    26    29    30   ar
    27    30    31   ar
    28    31    32   ar
    29    32    33   ar
    30    15    16    1
    31    16    17    1
    32    17    18    1
    33     6     1   ar
    34    16     7    1
    35    18     3    1
    36    14     9   ar
    37    33    28   ar
@<TRIPOS>MOLECULE
*****
 33 37 0 0 0
SMALL
GASTEIGER

@<TRIPOS>ATOM
      1 C         140.3903  140.9929  169.7138 C.ar    1  UNL1        0.1721
      2 C         140.3909  139.9610  168.6253 C.ar    1  UNL1        0.0356
      3 C         140.3388  140.3870  167.1880 C.ar    1  UNL1       -0.0203
      4 C         140.2863  141.8449  166.8393 C.ar    1  UNL1       -0.0081
      5 C         140.2858  142.8769  167.9279 C.ar    1  UNL1        0.0368
      6 C         140.3378  142.4509  169.3651 C.ar    1  UNL1        0.1721
      7 C         140.2343  142.2709  165.4020 C.3     1  UNL1        0.0845
      8 C         140.1817  143.7289  165.0533 C.3     1  UNL1        0.0466
      9 C         140.1297  144.1549  163.6160 C.ar    1  UNL1       -0.0201
     10 C         140.0772  145.6129  163.2673 C.ar    1  UNL1       -0.0012
     11 C         140.0252  146.0389  161.8300 C.ar    1  UNL1        0.0397
     12 C         140.0257  145.0069  160.7414 C.ar    1  UNL1        0.1721
     13 C         140.0782  143.5489  161.0901 C.ar    1  UNL1        0.1693
     14 C         140.1302  143.1229  162.5274 C.ar    1  UNL1        0.0257
     15 C         140.1828  141.6650  162.8761 C.3     1  UNL1        0.0875
     16 N         140.2348  141.2390  164.3134 N.3     1  UNL1       -0.2670
     17 C         140.2873  139.7810  164.6620 C.3     1  UNL1        0.0773
     18 C         140.3394  139.3550  166.0993 C.3     1  UNL1        0.0435
     19 C         141.7308  140.6569  171.9139 C.3     1  UNL1        0.2526
     20 O         140.4424  140.5669  171.1511 O.3     1  UNL1       -0.4684
     21 O         140.3373  143.4829  170.4538 O.3     1  UNL1       -0.4684
     22 C         140.0022  144.9096  170.1345 C.3     1  UNL1        0.2526
     23 O         139.9736  145.4329  159.3041 O.3     1  UNL1       -0.4684
     24 C         141.2343  145.4918  158.4932 C.3     1  UNL1        0.2526
     25 O         140.0787  142.5170  160.0015 O.3     1  UNL1       -0.4687
     26 C         138.8806  142.3646  159.1120 C.3     1  UNL1        0.2526
     27 C         140.1833  140.6330  161.7875 C.3     1  UNL1        0.0469
     28 C         141.4404  139.8792  161.4692 C.ar    1  UNL1       -0.0205
     29 C         141.3608  138.4832  160.9263 C.ar    1  UNL1       -0.0042
     30 C         142.6181  137.7294  160.6080 C.ar    1  UNL1       -0.0003
     31 C         143.9548  138.3716  160.8327 C.ar    1  UNL1       -0.0000
     32 C         144.0344  139.7677  161.3756 C.ar    1  UNL1       -0.0003
     33 C         142.7773  140.5215  161.6939 C.ar    1  UNL1       -0.0042
@<TRIPOS>BOND
     1    19    20    1
     2    20     1    1
     3     1     2   ar
     4     2     3   ar
     5     3     4   ar
     6     4     5   ar
     7     5     6   ar
     8     6    21    1
     9    21    22    1
    10     4     7    1
    11     7     8    1
    12     8     9    1
    13     9    10   ar
    14    10    11   ar
    15    11    12   ar
    16    12    23    1
    17    23    24    1
    18    12    13   ar
    19    13    25    1
    20    25    26    1
    21    13    14   ar
    22    14    15    1
    23    15    27    1
    24    27    28    1
    25    28    29   ar
    26    29    30   ar
    27    30    31   ar
    28    31    32   ar
    29    32    33   ar
    30    15    16    1
    31    16    17    1
    32    17    18    1
    33     6     1   ar
    34    16     7    1
    35    18     3    1
    36    14     9   ar
    37    33    28   ar
@<TRIPOS>MOLECULE
*****
 33 37 0 0 0
SMALL
GASTEIGER

@<TRIPOS>ATOM
      1 C         141.0263  137.9744  157.1846 C.ar    1  UNL1        0.1721
      2 C         139.8930  138.7073  157.8392 C.ar    1  UNL1        0.0356
      3 C         139.9358  138.9939  159.3109 C.ar    1  UNL1       -0.0203
      4 C         141.1118  138.5477  160.1280 C.ar    1  UNL1       -0.0081
      5 C         142.2451  137.8148  159.4734 C.ar    1  UNL1        0.0368
      6 C         142.2023  137.5282  158.0017 C.ar    1  UNL1        0.1721
      7 C         141.1546  138.8343  161.5998 C.3     1  UNL1        0.0845
      8 C         142.3307  138.3881  162.4169 C.3     1  UNL1        0.0466
      9 C         142.3735  138.6748  163.8886 C.ar    1  UNL1       -0.0201
     10 C         143.5496  138.2285  164.7058 C.ar    1  UNL1       -0.0012
     11 C         143.5924  138.5151  166.1775 C.ar    1  UNL1        0.0397
     12 C         142.4590  139.2481  166.8321 C.ar    1  UNL1        0.1721
     13 C         141.2830  139.6943  166.0150 C.ar    1  UNL1        0.1693
     14 C         141.2402  139.4076  164.5432 C.ar    1  UNL1        0.0257
     15 C         140.0642  139.8539  163.7261 C.3     1  UNL1        0.0875
     16 N         140.0214  139.5672  162.2544 N.3     1  UNL1       -0.2670
     17 C         138.8452  140.0135  161.4373 C.3     1  UNL1        0.0773
     18 C         138.8024  139.7268  159.9655 C.3     1  UNL1        0.0435
     19 C         139.7287  137.1524  155.0892 C.3     1  UNL1        0.2526
     20 O         140.9835  137.6878  155.7128 O.3     1  UNL1       -0.4684
     21 O         143.3357  136.7953  157.3471 O.3     1  UNL1       -0.4684
     22 C         143.2059  135.3325  157.0415 C.3     1  UNL1        0.2526
     23 O         142.5018  139.5347  168.3038 O.3     1  UNL1       -0.4684
     24 C         142.8150  140.9190  168.7895 C.3     1  UNL1        0.2526
     25 O         140.1497  140.4272  166.6696 O.3     1  UNL1       -0.4687
     26 C         139.2967  139.7324  167.6892 C.3     1  UNL1        0.2526
     27 C         138.9308  140.5868  164.3807 C.3     1  UNL1        0.0469
     28 C         138.9422  142.0855  164.4411 C.ar    1  UNL1       -0.0205
     29 C         140.2292  142.8337  164.2576 C.ar    1  UNL1       -0.0042
     30 C         140.2406  144.3325  164.3180 C.ar    1  UNL1       -0.0003
     31 C         138.9650  145.0830  164.5619 C.ar    1  UNL1       -0.0000
     32 C         137.6779  144.3347  164.7454 C.ar    1  UNL1       -0.0003
     33 C         137.6665  142.8360  164.6850 C.ar    1  UNL1       -0.0042
@<TRIPOS>BOND
     1    19    20    1
     2    20     1    1
     3     1     2   ar
     4     2     3   ar
     5     3     4   ar
     6     4     5   ar
     7     5     6   ar
     8     6    21    1
     9    21    22    1
    10     4     7    1
    11     7     8    1
    12     8     9    1
    13     9    10   ar
    14    10    11   ar
    15    11    12   ar
    16    12    23    1
    17    23    24    1
    18    12    13   ar
    19    13    25    1
    20    25    26    1
    21    13    14   ar
    22    14    15    1
    23    15    27    1
    24    27    28    1
    25    28    29   ar
    26    29    30   ar
    27    30    31   ar
    28    31    32   ar
    29    32    33   ar
    30    15    16    1
    31    16    17    1
    32    17    18    1
    33     6     1   ar
    34    16     7    1
    35    18     3    1
    36    14     9   ar
    37    33    28   ar
@<TRIPOS>MOLECULE
*****
 33 37 0 0 0
SMALL
GASTEIGER

@<TRIPOS>ATOM
      1 C         141.1469  140.6301  168.6733 C.ar    1  UNL1        0.1721
      2 C         141.7692  139.8071  167.5846 C.ar    1  UNL1        0.0356
      3 C         141.8112  140.3306  166.1795 C.ar    1  UNL1       -0.0203
      4 C         141.2309  141.6771  165.8632 C.ar    1  UNL1       -0.0081
      5 C         140.6086  142.5001  166.9519 C.ar    1  UNL1        0.0368
      6 C         140.5666  141.9766  168.3569 C.ar    1  UNL1        0.1721
      7 C         141.2729  142.2006  164.4581 C.3     1  UNL1        0.0845
      8 C         140.6926  143.5471  164.1418 C.3     1  UNL1        0.0466
      9 C         140.7346  144.0706  162.7367 C.ar    1  UNL1       -0.0201
     10 C         140.1542  145.4172  162.4204 C.ar    1  UNL1       -0.0012
     11 C         140.1962  145.9407  161.0153 C.ar    1  UNL1        0.0397
     12 C         140.8186  145.1176  159.9266 C.ar    1  UNL1        0.1721
     13 C         141.3989  143.7711  160.2429 C.ar    1  UNL1        0.1693
     14 C         141.3569  143.2476  161.6480 C.ar    1  UNL1        0.0257
     15 C         141.9372  141.9011  161.9643 C.3     1  UNL1        0.0875
     16 N         141.8952  141.3776  163.3694 N.3     1  UNL1       -0.2670
     17 C         142.4756  140.0311  163.6857 C.3     1  UNL1        0.0773
     18 C         142.4336  139.5076  165.0908 C.3     1  UNL1        0.0435
     19 C         142.1173  140.5719  171.0826 C.3     1  UNL1        0.2526
     20 O         141.1049  140.1066  170.0783 O.3     1  UNL1       -0.4684
     21 O         139.9442  142.7997  169.4457 O.3     1  UNL1       -0.4684
     22 C         140.6734  143.9891  169.9967 C.3     1  UNL1        0.2526
     23 O         140.8605  145.6411  158.5215 O.3     1  UNL1       -0.4684
     24 C         139.8613  145.1597  157.5116 C.3     1  UNL1        0.2526
     25 O         142.0212  142.9481  159.1542 O.3     1  UNL1       -0.4687
     26 C         143.2723  143.4234  158.4768 C.3     1  UNL1        0.2526
     27 C         142.5596  141.0781  160.8756 C.3     1  UNL1        0.0469
     28 C         141.7142  140.1351  160.0719 C.ar    1  UNL1       -0.0205
     29 C         140.2833  139.8985  160.4548 C.ar    1  UNL1       -0.0042
     30 C         139.4379  138.9555  159.6510 C.ar    1  UNL1       -0.0003
     31 C         140.0233  138.2491  158.4643 C.ar    1  UNL1       -0.0000
     32 C         141.4542  138.4857  158.0814 C.ar    1  UNL1       -0.0003
     33 C         142.2996  139.4287  158.8851 C.ar    1  UNL1       -0.0042
@<TRIPOS>BOND
     1    19    20    1
     2    20     1    1
     3     1     2   ar
     4     2     3   ar
     5     3     4   ar
     6     4     5   ar
     7     5     6   ar
     8     6    21    1
     9    21    22    1
    10     4     7    1
    11     7     8    1
    12     8     9    1
    13     9    10   ar
    14    10    11   ar
    15    11    12   ar
    16    12    23    1
    17    23    24    1
    18    12    13   ar
    19    13    25    1
    20    25    26    1
    21    13    14   ar
    22    14    15    1
    23    15    27    1
    24    27    28    1
    25    28    29   ar
    26    29    30   ar
    27    30    31   ar
    28    31    32   ar
    29    32    33   ar
    30    15    16    1
    31    16    17    1
    32    17    18    1
    33     6     1   ar
    34    16     7    1
    35    18     3    1
    36    14     9   ar
    37    33    28   ar
@<TRIPOS>MOLECULE
*****
 33 37 0 0 0
SMALL
GASTEIGER

@<TRIPOS>ATOM
      1 C         141.2454  142.0457  168.5887 C.ar    1  UNL1        0.1721
      2 C         140.3588  142.7050  167.5741 C.ar    1  UNL1        0.0356
      3 C         140.3885  142.2514  166.1446 C.ar    1  UNL1       -0.0203
      4 C         141.3046  141.1386  165.7297 C.ar    1  UNL1       -0.0081
      5 C         142.1912  140.4794  166.7442 C.ar    1  UNL1        0.0368
      6 C         142.1616  140.9329  168.1737 C.ar    1  UNL1        0.1721
      7 C         141.3343  140.6851  164.3002 C.3     1  UNL1        0.0845
      8 C         142.2504  139.5723  163.8853 C.3     1  UNL1        0.0466
      9 C         142.2801  139.1187  162.4558 C.ar    1  UNL1       -0.0201
     10 C         143.1963  138.0059  162.0408 C.ar    1  UNL1       -0.0012
     11 C         143.2259  137.5523  160.6114 C.ar    1  UNL1        0.0397
     12 C         142.3393  138.2116  159.5968 C.ar    1  UNL1        0.1721
     13 C         141.4231  139.3244  160.0118 C.ar    1  UNL1        0.1693
     14 C         141.3935  139.7780  161.4412 C.ar    1  UNL1        0.0257
     15 C         140.4773  140.8908  161.8562 C.3     1  UNL1        0.0875
     16 N         140.4477  141.3443  163.2857 N.3     1  UNL1       -0.2670
     17 C         139.5314  142.4572  163.7006 C.3     1  UNL1        0.0773
     18 C         139.5018  142.9107  165.1301 C.3     1  UNL1        0.0435
     19 C         139.9111  142.8626  170.6628 C.3     1  UNL1        0.2526
     20 O         141.2158  142.4992  170.0181 O.3     1  UNL1       -0.4684
     21 O         143.0482  140.2736  169.1883 O.3     1  UNL1       -0.4684
     22 C         142.5466  139.0960  169.9702 C.3     1  UNL1        0.2526
     23 O         142.3689  137.7581  158.1673 O.3     1  UNL1       -0.4684
     24 C         143.0639  138.5903  157.1307 C.3     1  UNL1        0.2526
     25 O         140.5365  139.9837  158.9972 O.3     1  UNL1       -0.4687
     26 C         139.4257  139.2072  158.3545 C.3     1  UNL1        0.2526
     27 C         139.5907  141.5501  160.8416 C.3     1  UNL1        0.0469
     28 C         140.0392  142.8075  160.1579 C.ar    1  UNL1       -0.0205
     29 C         139.4084  143.2225  158.8618 C.ar    1  UNL1       -0.0042
     30 C         139.8571  144.4800  158.1780 C.ar    1  UNL1       -0.0003
     31 C         140.9364  145.3225  158.7904 C.ar    1  UNL1       -0.0000
     32 C         141.5672  144.9076  160.0865 C.ar    1  UNL1       -0.0003
     33 C         141.1186  143.6502  160.7703 C.ar    1  UNL1       -0.0042
@<TRIPOS>BOND
     1    19    20    1
     2    20     1    1
     3     1     2   ar
     4     2     3   ar
     5     3     4   ar
     6     4     5   ar
     7     5     6   ar
     8     6    21    1
     9    21    22    1
    10     4     7    1
    11     7     8    1
    12     8     9    1
    13     9    10   ar
    14    10    11   ar
    15    11    12   ar
    16    12    23    1
    17    23    24    1
    18    12    13   ar
    19    13    25    1
    20    25    26    1
    21    13    14   ar
    22    14    15    1
    23    15    27    1
    24    27    28    1
    25    28    29   ar
    26    29    30   ar
    27    30    31   ar
    28    31    32   ar
    29    32    33   ar
    30    15    16    1
    31    16    17    1
    32    17    18    1
    33     6     1   ar
    34    16     7    1
    35    18     3    1
    36    14     9   ar
    37    33    28   ar
@<TRIPOS>MOLECULE
*****
 33 37 0 0 0
SMALL
GASTEIGER

@<TRIPOS>ATOM
      1 C         139.2056  139.1534  155.7141 C.ar    1  UNL1        0.1721
      2 C         139.1369  140.5060  156.3588 C.ar    1  UNL1        0.0356
      3 C         139.4165  140.6530  157.8252 C.ar    1  UNL1       -0.0203
      4 C         139.7648  139.4473  158.6468 C.ar    1  UNL1       -0.0081
      5 C         139.8335  138.0948  158.0020 C.ar    1  UNL1        0.0368
      6 C         139.5538  137.9478  156.5357 C.ar    1  UNL1        0.1721
      7 C         140.0445  139.5943  160.1131 C.3     1  UNL1        0.0845
      8 C         140.3927  138.3887  160.9348 C.3     1  UNL1        0.0466
      9 C         140.6724  138.5356  162.4011 C.ar    1  UNL1       -0.0201
     10 C         141.0207  137.3299  163.2227 C.ar    1  UNL1       -0.0012
     11 C         141.3003  137.4768  164.6891 C.ar    1  UNL1        0.0397
     12 C         141.2317  138.8295  165.3338 C.ar    1  UNL1        0.1721
     13 C         140.8834  140.0351  164.5122 C.ar    1  UNL1        0.1693
     14 C         140.6037  139.8882  163.0459 C.ar    1  UNL1        0.0257
     15 C         140.2555  141.0938  162.2243 C.3     1  UNL1        0.0875
     16 N         139.9758  140.9469  160.7579 N.3     1  UNL1       -0.2670
     17 C         139.6275  142.1526  159.9363 C.3     1  UNL1        0.0773
     18 C         139.3479  142.0057  158.4699 C.3     1  UNL1        0.0435
     19 C         137.5641  138.5832  153.7826 C.3     1  UNL1        0.2526
     20 O         138.9259  139.0065  154.2477 O.3     1  UNL1       -0.4684
     21 O         139.6225  136.5951  155.8909 O.3     1  UNL1       -0.4684
     22 C         140.9285  136.0827  155.3602 C.3     1  UNL1        0.2526
     23 O         141.5113  138.9765  166.8002 O.3     1  UNL1       -0.4684
     24 C         142.9246  139.1112  167.2844 C.3     1  UNL1        0.2526
     25 O         140.8147  141.3877  165.1570 O.3     1  UNL1       -0.4687
     26 C         139.7560  141.6785  166.1790 C.3     1  UNL1        0.2526
     27 C         140.1868  142.4465  162.8690 C.3     1  UNL1        0.0469
     28 C         141.4176  143.2995  162.9554 C.ar    1  UNL1       -0.0205
     29 C         142.6652  142.8917  162.2294 C.ar    1  UNL1       -0.0042
     30 C         143.8961  143.7448  162.3159 C.ar    1  UNL1       -0.0003
     31 C         143.8792  145.0056  163.1283 C.ar    1  UNL1       -0.0000
     32 C         142.6316  145.4134  163.8543 C.ar    1  UNL1       -0.0003
     33 C         141.4008  144.5604  163.7679 C.ar    1  UNL1       -0.0042
@<TRIPOS>BOND
     1    19    20    1
     2    20     1    1
     3     1     2   ar
     4     2     3   ar
     5     3     4   ar
     6     4     5   ar
     7     5     6   ar
     8     6    21    1
     9    21    22    1
    10     4     7    1
    11     7     8    1
    12     8     9    1
    13     9    10   ar
    14    10    11   ar
    15    11    12   ar
    16    12    23    1
    17    23    24    1
    18    12    13   ar
    19    13    25    1
    20    25    26    1
    21    13    14   ar
    22    14    15    1
    23    15    27    1
    24    27    28    1
    25    28    29   ar
    26    29    30   ar
    27    30    31   ar
    28    31    32   ar
    29    32    33   ar
    30    15    16    1
    31    16    17    1
    32    17    18    1
    33     6     1   ar
    34    16     7    1
    35    18     3    1
    36    14     9   ar
    37    33    28   ar
@<TRIPOS>MOLECULE
*****
 33 37 0 0 0
SMALL
GASTEIGER

@<TRIPOS>ATOM
      1 C         143.3296  134.1417  156.1484 C.ar    1  UNL1        0.1721
      2 C         143.4815  135.3818  156.9783 C.ar    1  UNL1        0.0356
      3 C         142.4458  136.4644  156.9058 C.ar    1  UNL1       -0.0203
      4 C         141.2581  136.3068  156.0034 C.ar    1  UNL1       -0.0081
      5 C         141.1061  135.0667  155.1734 C.ar    1  UNL1        0.0368
      6 C         142.1419  133.9841  155.2459 C.ar    1  UNL1        0.1721
      7 C         140.2223  137.3894  155.9309 C.3     1  UNL1        0.0845
      8 C         139.0347  137.2318  155.0284 C.3     1  UNL1        0.0466
      9 C         137.9989  138.3144  154.9559 C.ar    1  UNL1       -0.0201
     10 C         136.8112  138.1568  154.0533 C.ar    1  UNL1       -0.0012
     11 C         135.7754  139.2394  153.9808 C.ar    1  UNL1        0.0397
     12 C         135.9274  140.4796  154.8109 C.ar    1  UNL1        0.1721
     13 C         137.1151  140.6371  155.7133 C.ar    1  UNL1        0.1693
     14 C         138.1509  139.5546  155.7858 C.ar    1  UNL1        0.0257
     15 C         139.3386  139.7121  156.6883 C.3     1  UNL1        0.0875
     16 N         140.3743  138.6296  156.7608 N.3     1  UNL1       -0.2670
     17 C         141.5620  138.7872  157.6634 C.3     1  UNL1        0.0773
     18 C         142.5978  137.7046  157.7359 C.3     1  UNL1        0.0435
     19 C         144.5890  132.3201  157.5068 C.3     1  UNL1        0.2526
     20 O         144.3653  133.0591  156.2209 O.3     1  UNL1       -0.4684
     21 O         141.9899  132.7439  154.4159 O.3     1  UNL1       -0.4684
     22 C         141.3743  131.5130  155.0124 C.3     1  UNL1        0.2526
     23 O         134.8917  141.5622  154.7384 O.3     1  UNL1       -0.4684
     24 C         133.4594  141.2525  155.0589 C.3     1  UNL1        0.2526
     25 O         137.2671  141.8773  156.5433 O.3     1  UNL1       -0.4687
     26 C         137.4208  143.2120  155.8763 C.3     1  UNL1        0.2526
     27 C         139.4906  140.9523  157.5184 C.3     1  UNL1        0.0469
     28 C         138.9283  140.9982  158.9082 C.ar    1  UNL1       -0.0205
     29 C         138.3930  139.7487  159.5423 C.ar    1  UNL1       -0.0042
     30 C         137.8308  139.7946  160.9323 C.ar    1  UNL1       -0.0003
     31 C         137.8038  141.0900  161.6880 C.ar    1  UNL1       -0.0000
     32 C         138.3391  142.3395  161.0539 C.ar    1  UNL1       -0.0003
     33 C         138.9013  142.2936  159.6640 C.ar    1  UNL1       -0.0042
@<TRIPOS>BOND
     1    19    20    1
     2    20     1    1
     3     1     2   ar
     4     2     3   ar
     5     3     4   ar
     6     4     5   ar
     7     5     6   ar
     8     6    21    1
     9    21    22    1
    10     4     7    1
    11     7     8    1
    12     8     9    1
    13     9    10   ar
    14    10    11   ar
    15    11    12   ar
    16    12    23    1
    17    23    24    1
    18    12    13   ar
    19    13    25    1
    20    25    26    1
    21    13    14   ar
    22    14    15    1
    23    15    27    1
    24    27    28    1
    25    28    29   ar
    26    29    30   ar
    27    30    31   ar
    28    31    32   ar
    29    32    33   ar
    30    15    16    1
    31    16    17    1
    32    17    18    1
    33     6     1   ar
    34    16     7    1
    35    18     3    1
    36    14     9   ar
    37    33    28   ar
