@<TRIPOS>MOLECULE
*****
 15 16 0 0 0
SMALL
GASTEIGER

@<TRIPOS>ATOM
      1 O         139.0097  140.8679  170.5525 O.2     1  UNL1       -0.2501
      2 C         139.7675  140.4426  169.3300 C.2     1  UNL1        0.3332
      3 N         139.1665  139.9494  168.0472 N.am    1  UNL1       -0.2342
      4 C         140.5322  140.2039  168.6129 C.3     1  UNL1        0.1199
      5 C         141.7507  139.9377  167.7796 C.3     1  UNL1        0.1272
      6 C         141.6036  139.4169  166.3807 C.3     1  UNL1        0.0289
      7 C         140.2379  139.1623  165.8150 C.3     1  UNL1        0.0586
      8 C         139.0193  139.4285  166.6483 C.3     1  UNL1        0.2407
      9 F         137.6536  139.1739  166.0825 F       1  UNL1       -0.2147
     10 N         141.2596  140.4359  169.1754 N.am    1  UNL1       -0.1290
     11 O         142.2557  140.8533  170.2164 O.3     1  UNL1       -0.1369
     12 S         142.5106  142.3096  170.4692 S.3     1  UNL1        0.0201
     13 O         143.3174  142.3875  169.2071 O.2     1  UNL1       -0.3435
     14 O         141.7038  142.2318  171.7314 O.2     1  UNL1       -0.3435
     15 O         142.7655  143.7660  170.7221 O.co2   1  UNL1       -0.2667
@<TRIPOS>UNITY_ATOM_ATTR
15 1
charge -1
@<TRIPOS>BOND
     1     1     2    2
     2     2     3   am
     3     3     4    1
     4     4     5    1
     5     5     6    1
     6     6     7    1
     7     7     8    1
     8     8     9    1
     9     5    10    1
    10    10    11    1
    11    11    12    1
    12    12    13    2
    13    12    14    2
    14    12    15    1
    15    10     2   am
    16     8     3    1
@<TRIPOS>MOLECULE
*****
 15 16 0 0 0
SMALL
GASTEIGER

@<TRIPOS>ATOM
      1 O         138.4590  139.9646  170.3282 O.2     1  UNL1       -0.2501
      2 C         139.1876  140.1601  169.0318 C.2     1  UNL1        0.3332
      3 N         138.8927  139.4573  167.7399 N.am    1  UNL1       -0.2342
      4 C         139.8580  140.4830  168.2557 C.3     1  UNL1        0.1199
      5 C         140.8873  141.0727  167.3378 C.3     1  UNL1        0.1272
      6 C         140.9514  140.6368  165.9040 C.3     1  UNL1        0.0289
      7 C         139.9860  139.6112  165.3881 C.3     1  UNL1        0.0586
      8 C         138.9567  139.0215  166.3061 C.3     1  UNL1        0.2407
      9 F         137.9913  137.9958  165.7901 F       1  UNL1       -0.2147
     10 N         140.3393  141.0928  168.7996 N.am    1  UNL1       -0.1290
     11 O         140.9645  141.9937  169.8232 O.3     1  UNL1       -0.1369
     12 S         140.1422  143.0574  170.4882 S.3     1  UNL1        0.0201
     13 O         140.2281  142.3118  171.7870 O.2     1  UNL1       -0.3435
     14 O         140.0563  143.8030  169.1895 O.2     1  UNL1       -0.3435
     15 O         139.3200  144.1211  171.1533 O.co2   1  UNL1       -0.2667
@<TRIPOS>UNITY_ATOM_ATTR
15 1
charge -1
@<TRIPOS>BOND
     1     1     2    2
     2     2     3   am
     3     3     4    1
     4     4     5    1
     5     5     6    1
     6     6     7    1
     7     7     8    1
     8     8     9    1
     9     5    10    1
    10    10    11    1
    11    11    12    1
    12    12    13    2
    13    12    14    2
    14    12    15    1
    15    10     2   am
    16     8     3    1
@<TRIPOS>MOLECULE
*****
 15 16 0 0 0
SMALL
GASTEIGER

@<TRIPOS>ATOM
      1 O         142.4620  138.4701  170.2653 O.2     1  UNL1       -0.2501
      2 C         142.6116  139.4947  169.1799 C.2     1  UNL1        0.3332
      3 N         142.8112  139.2106  167.7207 N.am    1  UNL1       -0.2342
      4 C         142.6897  140.4072  168.6169 C.3     1  UNL1        0.1199
      5 C         142.7703  141.7888  168.0383 C.3     1  UNL1        0.1272
      6 C         142.9724  141.9737  166.5636 C.3     1  UNL1        0.0289
      7 C         143.0939  140.7771  165.6674 C.3     1  UNL1        0.0586
      8 C         143.0133  139.3955  166.2460 C.3     1  UNL1        0.2407
      9 F         143.1348  138.1988  165.3497 F       1  UNL1       -0.2147
     10 N         142.5880  140.9833  169.3633 N.am    1  UNL1       -0.1290
     11 O         142.4106  141.7087  170.6643 O.3     1  UNL1       -0.1369
     12 S         141.0634  142.2470  171.0451 S.3     1  UNL1        0.0201
     13 O         140.7136  140.9293  171.6706 O.2     1  UNL1       -0.3435
     14 O         141.4132  143.5648  170.4196 O.2     1  UNL1       -0.3435
     15 O         139.7162  142.7854  171.4260 O.co2   1  UNL1       -0.2667
@<TRIPOS>UNITY_ATOM_ATTR
15 1
charge -1
@<TRIPOS>BOND
     1     1     2    2
     2     2     3   am
     3     3     4    1
     4     4     5    1
     5     5     6    1
     6     6     7    1
     7     7     8    1
     8     8     9    1
     9     5    10    1
    10    10    11    1
    11    11    12    1
    12    12    13    2
    13    12    14    2
    14    12    15    1
    15    10     2   am
    16     8     3    1
@<TRIPOS>MOLECULE
*****
 15 16 0 0 0
SMALL
GASTEIGER

@<TRIPOS>ATOM
      1 O         143.5007  142.6291  168.6093 O.2     1  UNL1       -0.2501
      2 C         142.4809  141.7500  167.9481 C.2     1  UNL1        0.3332
      3 N         142.7666  140.6528  166.9660 N.am    1  UNL1       -0.2342
      4 C         141.5719  141.2745  167.6264 C.3     1  UNL1        0.1199
      5 C         140.1952  140.7633  167.3207 C.3     1  UNL1        0.1272
      6 C         140.0132  139.6304  166.3546 C.3     1  UNL1        0.0289
      7 C         141.2079  139.0087  165.6942 C.3     1  UNL1        0.0586
      8 C         142.5846  139.5199  165.9999 C.3     1  UNL1        0.2407
      9 F         143.7793  138.8982  165.3395 F       1  UNL1       -0.2147
     10 N         140.9962  141.8138  168.1529 N.am    1  UNL1       -0.1290
     11 O         140.2708  142.7679  169.0548 O.3     1  UNL1       -0.1369
     12 S         140.2793  142.5504  170.5389 S.3     1  UNL1        0.0201
     13 O         141.3487  143.5920  170.6855 O.2     1  UNL1       -0.3435
     14 O         139.2099  141.5088  170.3924 O.2     1  UNL1       -0.3435
     15 O         140.2877  142.3329  172.0231 O.co2   1  UNL1       -0.2667
@<TRIPOS>UNITY_ATOM_ATTR
15 1
charge -1
@<TRIPOS>BOND
     1     1     2    2
     2     2     3   am
     3     3     4    1
     4     4     5    1
     5     5     6    1
     6     6     7    1
     7     7     8    1
     8     8     9    1
     9     5    10    1
    10    10    11    1
    11    11    12    1
    12    12    13    2
    13    12    14    2
    14    12    15    1
    15    10     2   am
    16     8     3    1
@<TRIPOS>MOLECULE
*****
 15 16 0 0 0
SMALL
GASTEIGER

@<TRIPOS>ATOM
      1 O         143.4827  141.7433  169.9678 O.2     1  UNL1       -0.2501
      2 C         142.6730  142.0926  168.7544 C.2     1  UNL1        0.3332
      3 N         143.2046  142.2847  167.3650 N.am    1  UNL1       -0.2342
      4 C         141.8814  142.3375  168.0694 C.3     1  UNL1        0.1199
      5 C         140.6351  142.6633  167.3009 C.3     1  UNL1        0.1272
      6 C         140.7120  142.9363  165.8279 C.3     1  UNL1        0.0289
      7 C         142.0353  142.8835  165.1236 C.3     1  UNL1        0.0586
      8 C         143.2816  142.5577  165.8921 C.3     1  UNL1        0.2407
      9 F         144.6049  142.5049  165.1877 F       1  UNL1       -0.2147
     10 N         141.1894  142.3112  168.7174 N.am    1  UNL1       -0.1290
     11 O         140.2551  142.2188  169.8872 O.3     1  UNL1       -0.1369
     12 S         139.9531  140.8845  170.5023 S.3     1  UNL1        0.0201
     13 O         140.6997  141.2860  171.7398 O.2     1  UNL1       -0.3435
     14 O         139.2066  140.4830  169.2649 O.2     1  UNL1       -0.3435
     15 O         139.6512  139.5502  171.1174 O.co2   1  UNL1       -0.2667
@<TRIPOS>UNITY_ATOM_ATTR
15 1
charge -1
@<TRIPOS>BOND
     1     1     2    2
     2     2     3   am
     3     3     4    1
     4     4     5    1
     5     5     6    1
     6     6     7    1
     7     7     8    1
     8     8     9    1
     9     5    10    1
    10    10    11    1
    11    11    12    1
    12    12    13    2
    13    12    14    2
    14    12    15    1
    15    10     2   am
    16     8     3    1
@<TRIPOS>MOLECULE
*****
 15 16 0 0 0
SMALL
GASTEIGER

@<TRIPOS>ATOM
      1 O         141.7762  142.4850  167.9790 O.2     1  UNL1       -0.2501
      2 C         140.7315  141.5469  167.4512 C.2     1  UNL1        0.3332
      3 N         139.9189  141.7428  166.2057 N.am    1  UNL1       -0.2342
      4 C         140.0538  140.7260  167.3003 C.3     1  UNL1        0.1199
      5 C         139.1992  139.4933  167.2883 C.3     1  UNL1        0.1272
      6 C         138.2098  139.2773  166.1818 C.3     1  UNL1        0.0289
      7 C         138.0749  140.2940  165.0873 C.3     1  UNL1        0.0586
      8 C         138.9295  141.5268  165.0993 C.3     1  UNL1        0.2407
      9 F         138.7945  142.5435  164.0047 F       1  UNL1       -0.2147
     10 N         140.3160  140.2481  168.0763 N.am    1  UNL1       -0.1290
     11 O         140.8723  139.6595  169.3388 O.3     1  UNL1       -0.1369
     12 S         140.6700  140.3641  170.6475 S.3     1  UNL1        0.0201
     13 O         139.2291  139.9473  170.6492 O.2     1  UNL1       -0.3435
     14 O         142.1109  140.7808  170.6458 O.2     1  UNL1       -0.3435
     15 O         140.4678  141.0687  171.9561 O.co2   1  UNL1       -0.2667
@<TRIPOS>UNITY_ATOM_ATTR
15 1
charge -1
@<TRIPOS>BOND
     1     1     2    2
     2     2     3   am
     3     3     4    1
     4     4     5    1
     5     5     6    1
     6     6     7    1
     7     7     8    1
     8     8     9    1
     9     5    10    1
    10    10    11    1
    11    11    12    1
    12    12    13    2
    13    12    14    2
    14    12    15    1
    15    10     2   am
    16     8     3    1
@<TRIPOS>MOLECULE
*****
 15 16 0 0 0
SMALL
GASTEIGER

@<TRIPOS>ATOM
      1 O         142.5765  140.7636  167.4265 O.2     1  UNL1       -0.2501
      2 C         141.2725  140.1024  167.0914 C.2     1  UNL1        0.3332
      3 N         141.0560  139.0692  166.0257 N.am    1  UNL1       -0.2342
      4 C         140.2435  139.7923  167.0586 C.3     1  UNL1        0.1199
      5 C         138.7757  139.5123  167.1893 C.3     1  UNL1        0.1272
      6 C         138.1204  138.5091  166.2871 C.3     1  UNL1        0.0289
      7 C         138.9328  137.7860  165.2541 C.3     1  UNL1        0.0586
      8 C         140.4006  138.0661  165.1235 C.3     1  UNL1        0.2407
      9 F         141.2131  137.3429  164.0904 F       1  UNL1       -0.2147
     10 N         139.9559  140.3582  167.7632 N.am    1  UNL1       -0.1290
     11 O         139.7123  141.3201  168.8881 O.3     1  UNL1       -0.1369
     12 S         140.1598  140.9775  170.2782 S.3     1  UNL1        0.0201
     13 O         141.3127  141.9273  170.1410 O.2     1  UNL1       -0.3435
     14 O         139.0070  140.0278  170.4153 O.2     1  UNL1       -0.3435
     15 O         140.6074  140.6349  171.6682 O.co2   1  UNL1       -0.2667
@<TRIPOS>UNITY_ATOM_ATTR
15 1
charge -1
@<TRIPOS>BOND
     1     1     2    2
     2     2     3   am
     3     3     4    1
     4     4     5    1
     5     5     6    1
     6     6     7    1
     7     7     8    1
     8     8     9    1
     9     5    10    1
    10    10    11    1
    11    11    12    1
    12    12    13    2
    13    12    14    2
    14    12    15    1
    15    10     2   am
    16     8     3    1
@<TRIPOS>MOLECULE
*****
 15 16 0 0 0
SMALL
GASTEIGER

@<TRIPOS>ATOM
      1 O         143.1818  138.7927  168.7391 O.2     1  UNL1       -0.2501
      2 C         142.1247  139.5103  167.9533 C.2     1  UNL1        0.3332
      3 N         142.2043  139.8814  166.5021 N.am    1  UNL1       -0.2342
      4 C         141.2320  140.0187  167.6360 C.3     1  UNL1        0.1199
      5 C         139.9138  140.6996  167.4155 C.3     1  UNL1        0.1272
      6 C         139.5679  141.2433  166.0610 C.3     1  UNL1        0.0289
      7 C         140.5401  141.1061  164.9271 C.3     1  UNL1        0.0586
      8 C         141.8583  140.4251  165.1476 C.3     1  UNL1        0.2407
      9 F         142.8306  140.2879  164.0136 F       1  UNL1       -0.2147
     10 N         140.8022  139.9827  168.4806 N.am    1  UNL1       -0.1290
     11 O         140.3048  139.8205  169.8864 O.3     1  UNL1       -0.1369
     12 S         140.4203  140.9568  170.8587 S.3     1  UNL1        0.0201
     13 O         141.8439  140.5745  171.1364 O.2     1  UNL1       -0.3435
     14 O         138.9967  141.3392  170.5809 O.2     1  UNL1       -0.3435
     15 O         140.5358  142.0932  171.8309 O.co2   1  UNL1       -0.2667
@<TRIPOS>UNITY_ATOM_ATTR
15 1
charge -1
@<TRIPOS>BOND
     1     1     2    2
     2     2     3   am
     3     3     4    1
     4     4     5    1
     5     5     6    1
     6     6     7    1
     7     7     8    1
     8     8     9    1
     9     5    10    1
    10    10    11    1
    11    11    12    1
    12    12    13    2
    13    12    14    2
    14    12    15    1
    15    10     2   am
    16     8     3    1
@<TRIPOS>MOLECULE
*****
 15 16 0 0 0
SMALL
GASTEIGER

@<TRIPOS>ATOM
      1 O         138.1410  139.7560  165.7233 O.2     1  UNL1       -0.2501
      2 C         139.5930  139.5483  166.0373 C.2     1  UNL1        0.3332
      3 N         140.5728  138.7742  165.2063 N.am    1  UNL1       -0.2342
      4 C         140.5693  139.5541  166.4876 C.3     1  UNL1        0.1199
      5 C         141.8322  139.6921  167.2851 C.3     1  UNL1        0.1272
      6 C         143.0986  139.0504  166.8014 C.3     1  UNL1        0.0289
      7 C         143.1022  138.2705  165.5201 C.3     1  UNL1        0.0586
      8 C         141.8393  138.1324  164.7226 C.3     1  UNL1        0.2407
      9 F         141.8430  137.3525  163.4412 F       1  UNL1       -0.2147
     10 N         140.3201  140.0783  167.2376 N.am    1  UNL1       -0.1290
     11 O         139.7228  140.9091  168.3344 O.3     1  UNL1       -0.1369
     12 S         139.5290  140.3204  169.7004 S.3     1  UNL1        0.0201
     13 O         138.3594  139.5297  169.1937 O.2     1  UNL1       -0.3435
     14 O         140.6986  141.1111  170.2071 O.2     1  UNL1       -0.3435
     15 O         139.3352  139.7318  171.0664 O.co2   1  UNL1       -0.2667
@<TRIPOS>UNITY_ATOM_ATTR
15 1
charge -1
@<TRIPOS>BOND
     1     1     2    2
     2     2     3   am
     3     3     4    1
     4     4     5    1
     5     5     6    1
     6     6     7    1
     7     7     8    1
     8     8     9    1
     9     5    10    1
    10    10    11    1
    11    11    12    1
    12    12    13    2
    13    12    14    2
    14    12    15    1
    15    10     2   am
    16     8     3    1
