@<TRIPOS>MOLECULE
*****
 36 39 0 0 0
SMALL
GASTEIGER

@<TRIPOS>ATOM
      1 N         144.1868  140.7619  163.8243 N.3     1  UNL1       -0.2673
      2 C         143.9232  141.9956  164.6358 C.3     1  UNL1        0.1035
      3 C         143.3358  141.8773  166.0109 C.3     1  UNL1        0.1470
      4 C         142.7484  141.7592  167.3861 C.3     1  UNL1        0.1035
      5 N         142.4246  140.4073  167.9497 N.3     1  UNL1       -0.2684
      6 C         142.6882  139.1736  167.1381 C.3     1  UNL1        0.1035
      7 C         143.2756  139.2918  165.7630 C.3     1  UNL1        0.1470
      8 C         143.8630  139.4101  164.3879 C.3     1  UNL1        0.1035
      9 O         143.0120  140.5255  166.5745 O.3     1  UNL1       -0.3530
     10 C         144.7742  140.8801  162.4491 C.3     1  UNL1        0.0913
     11 C         145.1524  142.2271  161.9083 C.3     1  UNL1        0.1087
     12 N         144.4280  142.7890  160.7210 N.3     1  UNL1       -0.1779
     13 H         144.9253  143.6362  160.4465 H       1  UNL1        0.1488
     14 S         142.9776  143.1549  160.8315 S.O2    1  UNL1        0.0637
     15 O         143.3304  144.2696  161.7711 O.2     1  UNL1       -0.1529
     16 O         142.6248  142.0401  159.8920 O.2     1  UNL1       -0.1529
     17 C         141.4020  145.3320  158.9801 C.3     1  UNL1        0.0555
     18 C         140.8029  144.5215  160.0911 C.ar    1  UNL1        0.0998
     19 N         139.3744  144.5694  160.5460 N.ar    1  UNL1       -0.1714
     20 N         139.2157  143.5983  161.6783 N.ar    1  UNL1       -0.2372
     21 C         137.9490  143.3236  162.4332 C.3     1  UNL1        0.1548
     22 C         140.5462  142.9503  161.9230 C.ar    1  UNL1        0.1546
     23 CL        140.8435  141.9137  162.9656 Cl      1  UNL1       -0.0603
     24 C         141.5271  143.5208  160.9421 C.ar    1  UNL1        0.1649
     25 C         141.8372  140.2891  169.3248 C.3     1  UNL1        0.0761
     26 C         140.3829  139.9621  169.4936 C.3     1  UNL1        0.0646
     27 C         139.4108  140.2781  168.3959 C.3     1  UNL1        0.2068
     28 O         138.6612  139.1709  167.7162 O.3     1  UNL1       -0.4754
     29 C         138.7464  139.0112  166.2271 C.ar    1  UNL1        0.1386
     30 C         139.4688  137.8356  165.6390 C.ar    1  UNL1        0.0376
     31 C         139.5540  137.6759  164.1500 C.ar    1  UNL1        0.0134
     32 C         138.9167  138.6920  163.2491 C.ar    1  UNL1        0.0686
     33 C         138.1942  139.8676  163.8372 C.ar    1  UNL1        0.0134
     34 C         138.1091  140.0272  165.3262 C.ar    1  UNL1        0.0376
     35 C         139.0019  138.5323  161.7600 C.1     1  UNL1        0.1004
     36 N         139.0871  138.3726  160.2710 N.1     1  UNL1       -0.1908
@<TRIPOS>BOND
     1    17    18    1
     2    18    19   ar
     3    19    20   ar
     4    20    21    1
     5    20    22   ar
     6    22    23    1
     7    22    24   ar
     8    24    14    1
     9    14    15    2
    10    14    16    2
    11    14    12    1
    12    12    11    1
    13    11    10    1
    14    10     1    1
    15     1     2    1
    16     2     3    1
    17     3     4    1
    18     4     5    1
    19     5    25    1
    20    25    26    1
    21    26    27    1
    22    27    28    1
    23    28    29    1
    24    29    30   ar
    25    30    31   ar
    26    31    32   ar
    27    32    35    1
    28    35    36    3
    29    32    33   ar
    30    33    34   ar
    31     5     6    1
    32     6     7    1
    33     7     8    1
    34     7     9    1
    35    24    18   ar
    36     8     1    1
    37     9     3    1
    38    34    29   ar
    39    12    13    1
@<TRIPOS>MOLECULE
*****
 36 39 0 0 0
SMALL
GASTEIGER

@<TRIPOS>ATOM
      1 N         139.3888  138.5712  161.7590 N.3     1  UNL1       -0.2673
      2 C         138.2558  139.3600  162.3455 C.3     1  UNL1        0.1035
      3 C         138.2474  139.6853  163.8098 C.3     1  UNL1        0.1470
      4 C         138.2389  140.0106  165.2741 C.3     1  UNL1        0.1035
      5 N         139.3635  139.5471  166.1519 N.3     1  UNL1       -0.2684
      6 C         140.4965  138.7582  165.5653 C.3     1  UNL1        0.1035
      7 C         140.5050  138.4329  164.1011 C.3     1  UNL1        0.1470
      8 C         140.5134  138.1076  162.6368 C.3     1  UNL1        0.1035
      9 O         139.3719  139.2217  164.6875 O.3     1  UNL1       -0.3530
     10 C         139.3973  138.2458  160.2947 C.3     1  UNL1        0.0913
     11 C         140.1524  139.1188  159.3368 C.3     1  UNL1        0.1087
     12 N         141.6297  138.9317  159.1564 N.3     1  UNL1       -0.1779
     13 H         141.8404  137.9716  159.4289 H       1  UNL1        0.1488
     14 S         142.5931  139.8128  159.8950 S.O2    1  UNL1        0.0637
     15 O         141.4585  140.6969  160.3202 O.2     1  UNL1       -0.1529
     16 O         143.7277  138.9286  159.4698 O.2     1  UNL1       -0.1529
     17 C         143.7932  142.6558  158.8337 C.3     1  UNL1        0.0555
     18 C         144.1081  142.0007  160.1458 C.ar    1  UNL1        0.0998
     19 N         145.0299  142.5373  161.2004 N.ar    1  UNL1       -0.1714
     20 N         145.0479  141.5621  162.3401 N.ar    1  UNL1       -0.2372
     21 C         145.8380  141.7017  163.6075 C.3     1  UNL1        0.1548
     22 C         144.1373  140.4228  161.9897 C.ar    1  UNL1        0.1546
     23 CL        143.8568  139.2232  162.8454 Cl      1  UNL1       -0.0603
     24 C         143.5564  140.6938  160.6336 C.ar    1  UNL1        0.1649
     25 C         139.3550  139.8724  167.6161 C.3     1  UNL1        0.0761
     26 C         140.6410  140.1851  168.3224 C.3     1  UNL1        0.0646
     27 C         141.3284  141.4966  168.0830 C.3     1  UNL1        0.2068
     28 O         142.0956  141.7205  166.8137 O.3     1  UNL1       -0.4754
     29 C         141.5483  142.6348  165.7579 C.ar    1  UNL1        0.1386
     30 C         140.1839  143.2365  165.9205 C.ar    1  UNL1        0.0376
     31 C         139.6368  144.1507  164.8647 C.ar    1  UNL1        0.0134
     32 C         140.4539  144.4633  163.6463 C.ar    1  UNL1        0.0686
     33 C         141.8183  143.8616  163.4837 C.ar    1  UNL1        0.0134
     34 C         142.3655  142.9474  164.5394 C.ar    1  UNL1        0.0376
     35 C         139.9067  145.3776  162.5905 C.1     1  UNL1        0.1004
     36 N         139.3595  146.2918  161.5347 N.1     1  UNL1       -0.1908
@<TRIPOS>BOND
     1    17    18    1
     2    18    19   ar
     3    19    20   ar
     4    20    21    1
     5    20    22   ar
     6    22    23    1
     7    22    24   ar
     8    24    14    1
     9    14    15    2
    10    14    16    2
    11    14    12    1
    12    12    11    1
    13    11    10    1
    14    10     1    1
    15     1     2    1
    16     2     3    1
    17     3     4    1
    18     4     5    1
    19     5    25    1
    20    25    26    1
    21    26    27    1
    22    27    28    1
    23    28    29    1
    24    29    30   ar
    25    30    31   ar
    26    31    32   ar
    27    32    35    1
    28    35    36    3
    29    32    33   ar
    30    33    34   ar
    31     5     6    1
    32     6     7    1
    33     7     8    1
    34     7     9    1
    35    24    18   ar
    36     8     1    1
    37     9     3    1
    38    34    29   ar
    39    12    13    1
@<TRIPOS>MOLECULE
*****
 36 39 0 0 0
SMALL
GASTEIGER

@<TRIPOS>ATOM
      1 N         142.9892  140.4507  160.3168 N.3     1  UNL1       -0.2673
      2 C         143.6671  141.6294  160.9500 C.3     1  UNL1        0.1035
      3 C         142.9834  142.9644  160.9732 C.3     1  UNL1        0.1470
      4 C         142.2998  144.2994  160.9964 C.3     1  UNL1        0.1035
      5 N         140.9384  144.4556  160.3864 N.3     1  UNL1       -0.2684
      6 C         140.2606  143.2767  159.7531 C.3     1  UNL1        0.1035
      7 C         140.9442  141.9418  159.7299 C.3     1  UNL1        0.1470
      8 C         141.6278  140.6068  159.7068 C.3     1  UNL1        0.1035
      9 O         141.6220  143.1205  160.3632 O.3     1  UNL1       -0.3530
     10 C         143.6729  139.1156  160.2936 C.3     1  UNL1        0.0913
     11 C         143.7373  138.2843  161.5404 C.3     1  UNL1        0.1087
     12 N         144.5786  138.7331  162.6985 N.3     1  UNL1       -0.1779
     13 H         145.1870  137.9512  162.9409 H       1  UNL1        0.1488
     14 S         143.9241  139.1832  163.9709 S.O2    1  UNL1        0.0637
     15 O         145.1331  140.0073  164.3012 O.2     1  UNL1       -0.1529
     16 O         142.7152  138.3591  163.6406 O.2     1  UNL1       -0.1529
     17 C         142.0835  141.8524  164.3413 C.3     1  UNL1        0.0555
     18 C         142.4237  140.8602  165.4136 C.ar    1  UNL1        0.0998
     19 N         141.9775  140.9207  166.8444 N.ar    1  UNL1       -0.1714
     20 N         142.5478  139.7312  167.5584 N.ar    1  UNL1       -0.2372
     21 C         142.3536  139.3962  169.0076 C.3     1  UNL1        0.1548
     22 C         143.3465  138.9356  166.5689 C.ar    1  UNL1        0.1546
     23 CL        144.0911  137.6652  166.8548 Cl      1  UNL1       -0.0603
     24 C         143.2697  139.6333  165.2433 C.ar    1  UNL1        0.1649
     25 C         140.2548  145.7905  160.4095 C.3     1  UNL1        0.0761
     26 C         139.4414  146.1960  161.6029 C.3     1  UNL1        0.0646
     27 C         139.1356  145.1950  162.6774 C.3     1  UNL1        0.2068
     28 O         138.0410  144.1895  162.4760 O.3     1  UNL1       -0.4754
     29 C         138.1601  142.8205  163.0776 C.ar    1  UNL1        0.1386
     30 C         138.0396  141.6054  162.2065 C.ar    1  UNL1        0.0376
     31 C         138.1587  140.2365  162.8082 C.ar    1  UNL1        0.0134
     32 C         138.3983  140.0828  164.2809 C.ar    1  UNL1        0.0686
     33 C         138.5188  141.2980  165.1520 C.ar    1  UNL1        0.0134
     34 C         138.3997  142.6668  164.5504 C.ar    1  UNL1        0.0376
     35 C         138.5174  138.7139  164.8826 C.1     1  UNL1        0.1004
     36 N         138.6365  137.3450  165.4841 N.1     1  UNL1       -0.1908
@<TRIPOS>BOND
     1    17    18    1
     2    18    19   ar
     3    19    20   ar
     4    20    21    1
     5    20    22   ar
     6    22    23    1
     7    22    24   ar
     8    24    14    1
     9    14    15    2
    10    14    16    2
    11    14    12    1
    12    12    11    1
    13    11    10    1
    14    10     1    1
    15     1     2    1
    16     2     3    1
    17     3     4    1
    18     4     5    1
    19     5    25    1
    20    25    26    1
    21    26    27    1
    22    27    28    1
    23    28    29    1
    24    29    30   ar
    25    30    31   ar
    26    31    32   ar
    27    32    35    1
    28    35    36    3
    29    32    33   ar
    30    33    34   ar
    31     5     6    1
    32     6     7    1
    33     7     8    1
    34     7     9    1
    35    24    18   ar
    36     8     1    1
    37     9     3    1
    38    34    29   ar
    39    12    13    1
@<TRIPOS>MOLECULE
*****
 36 39 0 0 0
SMALL
GASTEIGER

@<TRIPOS>ATOM
      1 N         144.4297  141.6055  163.1079 N.3     1  UNL1       -0.2673
      2 C         144.1434  140.1432  163.2801 C.3     1  UNL1        0.1035
      3 C         143.5641  139.6391  164.5686 C.3     1  UNL1        0.1470
      4 C         142.9848  139.1348  165.8571 C.3     1  UNL1        0.1035
      5 N         142.6917  140.0930  166.9734 N.3     1  UNL1       -0.2684
      6 C         142.9780  141.5554  166.8011 C.3     1  UNL1        0.1035
      7 C         143.5573  142.0595  165.5127 C.3     1  UNL1        0.1470
      8 C         144.1366  142.5636  164.2242 C.3     1  UNL1        0.1035
      9 O         143.2711  140.5972  165.6849 O.3     1  UNL1       -0.3530
     10 C         145.0090  142.1097  161.8194 C.3     1  UNL1        0.0913
     11 C         144.1252  142.2964  160.6220 C.3     1  UNL1        0.1087
     12 N         143.2755  143.5267  160.5014 N.3     1  UNL1       -0.1779
     13 H         143.7639  144.2717  160.9983 H       1  UNL1        0.1488
     14 S         141.8653  143.5174  161.0125 S.O2    1  UNL1        0.0637
     15 O         141.9089  142.0209  161.1053 O.2     1  UNL1       -0.1529
     16 O         141.8218  145.0139  160.9196 O.2     1  UNL1       -0.1529
     17 C         139.1966  142.8261  159.2661 C.3     1  UNL1        0.0555
     18 C         139.2285  143.1903  160.7209 C.ar    1  UNL1        0.0998
     19 N         138.0392  143.3007  161.6283 N.ar    1  UNL1       -0.1714
     20 N         138.5310  143.6867  162.9919 N.ar    1  UNL1       -0.2372
     21 C         137.6791  143.9061  164.2069 C.3     1  UNL1        0.1548
     22 C         140.0241  143.8149  162.9271 C.ar    1  UNL1        0.1546
     23 CL        140.9274  144.1848  164.0660 Cl      1  UNL1       -0.0603
     24 C         140.4552  143.5081  161.5236 C.ar    1  UNL1        0.1649
     25 C         142.1124  139.5888  168.2619 C.3     1  UNL1        0.0761
     26 C         140.8256  140.1597  168.7798 C.3     1  UNL1        0.0646
     27 C         139.7067  140.4699  167.8302 C.3     1  UNL1        0.2068
     28 O         138.9542  139.3542  167.1678 O.3     1  UNL1       -0.4754
     29 C         139.0499  139.1629  165.6830 C.ar    1  UNL1        0.1386
     30 C         138.5890  140.2480  164.7558 C.ar    1  UNL1        0.0376
     31 C         138.6846  140.0567  163.2711 C.ar    1  UNL1        0.0134
     32 C         139.2412  138.7801  162.7138 C.ar    1  UNL1        0.0686
     33 C         139.7021  137.6950  163.6411 C.ar    1  UNL1        0.0134
     34 C         139.6065  137.8863  165.1257 C.ar    1  UNL1        0.0376
     35 C         139.3368  138.5888  161.2291 C.1     1  UNL1        0.1004
     36 N         139.4325  138.3975  159.7444 N.1     1  UNL1       -0.1908
@<TRIPOS>BOND
     1    17    18    1
     2    18    19   ar
     3    19    20   ar
     4    20    21    1
     5    20    22   ar
     6    22    23    1
     7    22    24   ar
     8    24    14    1
     9    14    15    2
    10    14    16    2
    11    14    12    1
    12    12    11    1
    13    11    10    1
    14    10     1    1
    15     1     2    1
    16     2     3    1
    17     3     4    1
    18     4     5    1
    19     5    25    1
    20    25    26    1
    21    26    27    1
    22    27    28    1
    23    28    29    1
    24    29    30   ar
    25    30    31   ar
    26    31    32   ar
    27    32    35    1
    28    35    36    3
    29    32    33   ar
    30    33    34   ar
    31     5     6    1
    32     6     7    1
    33     7     8    1
    34     7     9    1
    35    24    18   ar
    36     8     1    1
    37     9     3    1
    38    34    29   ar
    39    12    13    1
@<TRIPOS>MOLECULE
*****
 36 39 0 0 0
SMALL
GASTEIGER

@<TRIPOS>ATOM
      1 N         144.5302  141.8044  163.9778 N.3     1  UNL1       -0.2673
      2 C         144.1400  142.7862  165.0427 C.3     1  UNL1        0.1035
      3 C         143.4487  142.3093  166.2854 C.3     1  UNL1        0.1470
      4 C         142.7572  141.8324  167.5283 C.3     1  UNL1        0.1035
      5 N         142.4560  140.3737  167.7062 N.3     1  UNL1       -0.2684
      6 C         142.8463  139.3920  166.6413 C.3     1  UNL1        0.1035
      7 C         143.5377  139.8689  165.3985 C.3     1  UNL1        0.1470
      8 C         144.2290  140.3458  164.1558 C.3     1  UNL1        0.1035
      9 O         143.1475  140.8506  166.4634 O.3     1  UNL1       -0.3530
     10 C         145.2217  142.2813  162.7350 C.3     1  UNL1        0.0913
     11 C         144.4322  142.5198  161.4821 C.3     1  UNL1        0.1087
     12 N         143.4974  143.6898  161.3959 N.3     1  UNL1       -0.1779
     13 H         143.4209  144.0755  162.3370 H       1  UNL1        0.1488
     14 S         142.0978  143.4960  160.8923 S.O2    1  UNL1        0.0637
     15 O         142.1303  142.0683  161.3513 O.2     1  UNL1       -0.1529
     16 O         142.0653  144.9236  160.4334 O.2     1  UNL1       -0.1529
     17 C         139.3664  143.8058  162.6510 C.3     1  UNL1        0.0555
     18 C         139.4427  143.4446  161.1971 C.ar    1  UNL1        0.0998
     19 N         138.2769  143.1624  160.2964 N.ar    1  UNL1       -0.1714
     20 N         138.8120  142.8456  158.9313 N.ar    1  UNL1       -0.2372
     21 C         137.9942  142.5026  157.7215 C.3     1  UNL1        0.1548
     22 C         140.3084  142.9320  158.9884 C.ar    1  UNL1        0.1546
     23 CL        141.2497  142.6905  157.8458 Cl      1  UNL1       -0.0603
     24 C         140.6982  143.3022  160.3888 C.ar    1  UNL1        0.1649
     25 C         141.7647  139.8968  168.9490 C.3     1  UNL1        0.0761
     26 C         140.2753  140.0240  169.0745 C.3     1  UNL1        0.0646
     27 C         139.4366  140.2545  167.8524 C.3     1  UNL1        0.2068
     28 O         138.8722  139.0868  167.0990 O.3     1  UNL1       -0.4754
     29 C         138.6579  139.1828  165.6174 C.ar    1  UNL1        0.1386
     30 C         138.1587  140.4617  165.0132 C.ar    1  UNL1        0.0376
     31 C         137.9445  140.5576  163.5317 C.ar    1  UNL1        0.0134
     32 C         138.2295  139.3747  162.6545 C.ar    1  UNL1        0.0686
     33 C         138.7287  138.0958  163.2588 C.ar    1  UNL1        0.0134
     34 C         138.9429  137.9999  164.7403 C.ar    1  UNL1        0.0376
     35 C         138.0152  139.4707  161.1729 C.1     1  UNL1        0.1004
     36 N         137.8010  139.5667  159.6914 N.1     1  UNL1       -0.1908
@<TRIPOS>BOND
     1    17    18    1
     2    18    19   ar
     3    19    20   ar
     4    20    21    1
     5    20    22   ar
     6    22    23    1
     7    22    24   ar
     8    24    14    1
     9    14    15    2
    10    14    16    2
    11    14    12    1
    12    12    11    1
    13    11    10    1
    14    10     1    1
    15     1     2    1
    16     2     3    1
    17     3     4    1
    18     4     5    1
    19     5    25    1
    20    25    26    1
    21    26    27    1
    22    27    28    1
    23    28    29    1
    24    29    30   ar
    25    30    31   ar
    26    31    32   ar
    27    32    35    1
    28    35    36    3
    29    32    33   ar
    30    33    34   ar
    31     5     6    1
    32     6     7    1
    33     7     8    1
    34     7     9    1
    35    24    18   ar
    36     8     1    1
    37     9     3    1
    38    34    29   ar
    39    12    13    1
@<TRIPOS>MOLECULE
*****
 36 39 0 0 0
SMALL
GASTEIGER

@<TRIPOS>ATOM
      1 N         142.7145  138.4119  161.0161 N.3     1  UNL1       -0.2673
      2 C         143.9482  138.9945  161.6392 C.3     1  UNL1        0.1035
      3 C         144.0870  139.0349  163.1322 C.3     1  UNL1        0.1470
      4 C         144.2258  139.0752  164.6253 C.3     1  UNL1        0.1035
      5 N         143.1307  138.5329  165.4952 N.3     1  UNL1       -0.2684
      6 C         141.8969  137.9502  164.8720 C.3     1  UNL1        0.1035
      7 C         141.7582  137.9098  163.3791 C.3     1  UNL1        0.1470
      8 C         141.6194  137.8695  161.8861 C.3     1  UNL1        0.1035
      9 O         142.9919  138.4925  164.0021 O.3     1  UNL1       -0.3530
     10 C         142.5757  138.3715  159.5231 C.3     1  UNL1        0.0913
     11 C         142.5670  139.6483  158.7359 C.3     1  UNL1        0.1087
     12 N         141.3079  140.4569  158.6320 N.3     1  UNL1       -0.1779
     13 H         141.2937  140.8608  157.6955 H       1  UNL1        0.1488
     14 S         141.0573  141.5815  159.5924 S.O2    1  UNL1        0.0637
     15 O         139.7164  140.9979  159.9260 O.2     1  UNL1       -0.1529
     16 O         142.3982  142.1651  159.2588 O.2     1  UNL1       -0.1529
     17 C         141.5736  141.5039  162.8137 C.3     1  UNL1        0.0555
     18 C         141.0441  142.6705  162.0335 C.ar    1  UNL1        0.0998
     19 N         140.6590  144.0062  162.5970 N.ar    1  UNL1       -0.1714
     20 N         140.1836  144.8674  161.4645 N.ar    1  UNL1       -0.2372
     21 C         139.7015  146.2834  161.5758 C.3     1  UNL1        0.1548
     22 C         140.2750  144.0639  160.2011 C.ar    1  UNL1        0.1546
     23 CL        139.9003  144.5354  158.8274 Cl      1  UNL1       -0.0603
     24 C         140.8068  142.7061  160.5528 C.ar    1  UNL1        0.1649
     25 C         143.2695  138.5732  166.9882 C.3     1  UNL1        0.0761
     26 C         142.7651  139.7587  167.7566 C.3     1  UNL1        0.0646
     27 C         141.9007  139.5562  168.9656 C.3     1  UNL1        0.2068
     28 O         140.4409  139.8964  168.9094 O.3     1  UNL1       -0.4754
     29 C         139.8154  140.3040  167.6083 C.ar    1  UNL1        0.1386
     30 C         140.0873  141.6650  167.0393 C.ar    1  UNL1        0.0376
     31 C         139.4618  142.0726  165.7383 C.ar    1  UNL1        0.0134
     32 C         138.5643  141.1192  165.0064 C.ar    1  UNL1        0.0686
     33 C         138.2924  139.7583  165.5755 C.ar    1  UNL1        0.0134
     34 C         138.9179  139.3507  166.8764 C.ar    1  UNL1        0.0376
     35 C         137.9388  141.5269  163.7054 C.1     1  UNL1        0.1004
     36 N         137.3133  141.9345  162.4044 N.1     1  UNL1       -0.1908
@<TRIPOS>BOND
     1    17    18    1
     2    18    19   ar
     3    19    20   ar
     4    20    21    1
     5    20    22   ar
     6    22    23    1
     7    22    24   ar
     8    24    14    1
     9    14    15    2
    10    14    16    2
    11    14    12    1
    12    12    11    1
    13    11    10    1
    14    10     1    1
    15     1     2    1
    16     2     3    1
    17     3     4    1
    18     4     5    1
    19     5    25    1
    20    25    26    1
    21    26    27    1
    22    27    28    1
    23    28    29    1
    24    29    30   ar
    25    30    31   ar
    26    31    32   ar
    27    32    35    1
    28    35    36    3
    29    32    33   ar
    30    33    34   ar
    31     5     6    1
    32     6     7    1
    33     7     8    1
    34     7     9    1
    35    24    18   ar
    36     8     1    1
    37     9     3    1
    38    34    29   ar
    39    12    13    1
@<TRIPOS>MOLECULE
*****
 36 39 0 0 0
SMALL
GASTEIGER

@<TRIPOS>ATOM
      1 N         140.2308  137.6507  162.7964 N.3     1  UNL1       -0.2673
      2 C         138.7740  138.0066  162.8282 C.3     1  UNL1        0.1035
      3 C         138.1619  138.7642  161.6875 C.3     1  UNL1        0.1470
      4 C         137.5498  139.5218  160.5467 C.3     1  UNL1        0.1035
      5 N         138.3945  139.9236  159.3741 N.3     1  UNL1       -0.2684
      6 C         139.8514  139.5677  159.3423 C.3     1  UNL1        0.1035
      7 C         140.4634  138.8101  160.4830 C.3     1  UNL1        0.1470
      8 C         141.0755  138.0525  161.6238 C.3     1  UNL1        0.1035
      9 O         139.0066  139.1659  160.5149 O.3     1  UNL1       -0.3530
     10 C         140.8429  136.8931  163.9372 C.3     1  UNL1        0.0913
     11 C         141.6000  137.6266  165.0043 C.3     1  UNL1        0.1087
     12 N         141.0934  138.9439  165.5125 N.3     1  UNL1       -0.1779
     13 H         140.1532  139.0631  165.1353 H       1  UNL1        0.1488
     14 S         141.8456  140.2051  165.2069 S.O2    1  UNL1        0.0637
     15 O         140.5693  140.9880  165.2961 O.2     1  UNL1       -0.1529
     16 O         143.1220  139.4222  165.1177 O.2     1  UNL1       -0.1529
     17 C         143.1795  142.2218  167.3986 C.3     1  UNL1        0.0555
     18 C         143.2110  142.3933  165.9087 C.ar    1  UNL1        0.0998
     19 N         143.8612  143.5219  165.1648 N.ar    1  UNL1       -0.1714
     20 N         143.6498  143.2924  163.6975 N.ar    1  UNL1       -0.2372
     21 C         144.1342  144.1779  162.5879 C.3     1  UNL1        0.1548
     22 C         142.8691  142.0220  163.5348 C.ar    1  UNL1        0.1546
     23 CL        142.4357  141.4141  162.2338 Cl      1  UNL1       -0.0603
     24 C         142.5979  141.4663  164.9014 C.ar    1  UNL1        0.1649
     25 C         137.7824  140.6812  158.2333 C.3     1  UNL1        0.0761
     26 C         138.5675  141.7538  157.5382 C.3     1  UNL1        0.0646
     27 C         138.8800  143.0360  158.2512 C.3     1  UNL1        0.2068
     28 O         139.9514  143.0688  159.3004 O.3     1  UNL1       -0.4754
     29 C         139.6250  143.5243  160.6919 C.ar    1  UNL1        0.1386
     30 C         138.3765  143.0384  161.3666 C.ar    1  UNL1        0.0376
     31 C         138.0501  143.4940  162.7579 C.ar    1  UNL1        0.0134
     32 C         138.9722  144.4354  163.4746 C.ar    1  UNL1        0.0686
     33 C         140.2206  144.9213  162.7998 C.ar    1  UNL1        0.0134
     34 C         140.5470  144.4658  161.4085 C.ar    1  UNL1        0.0376
     35 C         138.6457  144.8910  164.8660 C.1     1  UNL1        0.1004
     36 N         138.3193  145.3465  166.2573 N.1     1  UNL1       -0.1908
@<TRIPOS>BOND
     1    17    18    1
     2    18    19   ar
     3    19    20   ar
     4    20    21    1
     5    20    22   ar
     6    22    23    1
     7    22    24   ar
     8    24    14    1
     9    14    15    2
    10    14    16    2
    11    14    12    1
    12    12    11    1
    13    11    10    1
    14    10     1    1
    15     1     2    1
    16     2     3    1
    17     3     4    1
    18     4     5    1
    19     5    25    1
    20    25    26    1
    21    26    27    1
    22    27    28    1
    23    28    29    1
    24    29    30   ar
    25    30    31   ar
    26    31    32   ar
    27    32    35    1
    28    35    36    3
    29    32    33   ar
    30    33    34   ar
    31     5     6    1
    32     6     7    1
    33     7     8    1
    34     7     9    1
    35    24    18   ar
    36     8     1    1
    37     9     3    1
    38    34    29   ar
    39    12    13    1
@<TRIPOS>MOLECULE
*****
 36 39 0 0 0
SMALL
GASTEIGER

@<TRIPOS>ATOM
      1 N         142.0967  138.4020  160.5870 N.3     1  UNL1       -0.2673
      2 C         140.6049  138.4861  160.4551 C.3     1  UNL1        0.1035
      3 C         139.7324  138.2680  161.6555 C.3     1  UNL1        0.1470
      4 C         138.8597  138.0500  162.8559 C.3     1  UNL1        0.1035
      5 N         139.4789  137.7479  164.1883 N.3     1  UNL1       -0.2684
      6 C         140.9708  137.6638  164.3203 C.3     1  UNL1        0.1035
      7 C         141.8434  137.8819  163.1199 C.3     1  UNL1        0.1470
      8 C         142.7159  138.0999  161.9194 C.3     1  UNL1        0.1035
      9 O         140.3516  137.9659  162.9879 O.3     1  UNL1       -0.3530
     10 C         142.9693  138.6201  159.3866 C.3     1  UNL1        0.0913
     11 C         142.3909  138.5028  158.0076 C.3     1  UNL1        0.1087
     12 N         143.2495  138.0310  156.8717 N.3     1  UNL1       -0.1779
     13 H         143.0921  138.6749  156.0965 H       1  UNL1        0.1488
     14 S         143.0756  136.6449  156.3255 S.O2    1  UNL1        0.0637
     15 O         141.6569  136.6311  156.8124 O.2     1  UNL1       -0.1529
     16 O         144.4943  136.6587  155.8387 O.2     1  UNL1       -0.1529
     17 C         142.0081  135.8803  153.3380 C.3     1  UNL1        0.0555
     18 C         142.4109  134.9073  154.4061 C.ar    1  UNL1        0.0998
     19 N         142.3939  133.4120  154.2885 N.ar    1  UNL1       -0.1714
     20 N         142.8740  132.8393  155.5892 N.ar    1  UNL1       -0.2372
     21 C         143.0155  131.3813  155.9118 C.3     1  UNL1        0.1548
     22 C         143.1878  133.9807  156.5105 C.ar    1  UNL1        0.1546
     23 CL        143.6982  133.8643  157.9162 Cl      1  UNL1       -0.0603
     24 C         142.9016  135.2587  155.7794 C.ar    1  UNL1        0.1649
     25 C         138.6064  137.5298  165.3888 C.3     1  UNL1        0.0761
     26 C         138.1422  138.7021  166.2015 C.3     1  UNL1        0.0646
     27 C         139.1309  139.5013  166.9976 C.3     1  UNL1        0.2068
     28 O         139.5737  140.8483  166.5085 O.3     1  UNL1       -0.4754
     29 C         139.3332  141.2444  165.0818 C.ar    1  UNL1        0.1386
     30 C         140.4833  141.3275  164.1225 C.ar    1  UNL1        0.0376
     31 C         140.2429  141.7236  162.6959 C.ar    1  UNL1        0.0134
     32 C         138.8523  142.0366  162.2286 C.ar    1  UNL1        0.0686
     33 C         137.7022  141.9536  163.1879 C.ar    1  UNL1        0.0134
     34 C         137.9427  141.5575  164.6145 C.ar    1  UNL1        0.0376
     35 C         138.6119  142.4328  160.8019 C.1     1  UNL1        0.1004
     36 N         138.3714  142.8289  159.3753 N.1     1  UNL1       -0.1908
@<TRIPOS>BOND
     1    17    18    1
     2    18    19   ar
     3    19    20   ar
     4    20    21    1
     5    20    22   ar
     6    22    23    1
     7    22    24   ar
     8    24    14    1
     9    14    15    2
    10    14    16    2
    11    14    12    1
    12    12    11    1
    13    11    10    1
    14    10     1    1
    15     1     2    1
    16     2     3    1
    17     3     4    1
    18     4     5    1
    19     5    25    1
    20    25    26    1
    21    26    27    1
    22    27    28    1
    23    28    29    1
    24    29    30   ar
    25    30    31   ar
    26    31    32   ar
    27    32    35    1
    28    35    36    3
    29    32    33   ar
    30    33    34   ar
    31     5     6    1
    32     6     7    1
    33     7     8    1
    34     7     9    1
    35    24    18   ar
    36     8     1    1
    37     9     3    1
    38    34    29   ar
    39    12    13    1
@<TRIPOS>MOLECULE
*****
 36 39 0 0 0
SMALL
GASTEIGER

@<TRIPOS>ATOM
      1 N         141.4920  138.4172  159.5308 N.3     1  UNL1       -0.2673
      2 C         142.3323  137.9859  160.6960 C.3     1  UNL1        0.1035
      3 C         141.6932  137.7360  162.0298 C.3     1  UNL1        0.1470
      4 C         141.0541  137.4861  163.3637 C.3     1  UNL1        0.1035
      5 N         139.5747  137.6675  163.5323 N.3     1  UNL1       -0.2684
      6 C         138.7344  138.0988  162.3669 C.3     1  UNL1        0.1035
      7 C         139.3735  138.3487  161.0331 C.3     1  UNL1        0.1470
      8 C         140.0126  138.5986  159.6993 C.3     1  UNL1        0.1035
      9 O         140.2138  137.9174  162.1984 O.3     1  UNL1       -0.3530
     10 C         142.1311  138.6671  158.1969 C.3     1  UNL1        0.0913
     11 C         141.7601  137.8188  157.0168 C.3     1  UNL1        0.1087
     12 N         142.8229  137.3441  156.0706 N.3     1  UNL1       -0.1779
     13 H         142.6776  137.8405  155.1915 H       1  UNL1        0.1488
     14 S         142.9292  135.8866  155.7323 S.O2    1  UNL1        0.0637
     15 O         141.4886  135.6953  156.1036 O.2     1  UNL1       -0.1529
     16 O         144.3699  136.0779  155.3610 O.2     1  UNL1       -0.1529
     17 C         141.9225  134.4815  152.9643 C.3     1  UNL1        0.0555
     18 C         142.5728  133.7833  154.1217 C.ar    1  UNL1        0.0998
     19 N         142.8746  132.3166  154.2100 N.ar    1  UNL1       -0.1714
     20 N         143.5239  132.0561  155.5369 N.ar    1  UNL1       -0.2372
     21 C         143.9916  130.7237  156.0432 C.3     1  UNL1        0.1548
     22 C         143.6233  133.3617  156.2686 C.ar    1  UNL1        0.1546
     23 CL        144.2080  133.5642  157.6351 Cl      1  UNL1       -0.0603
     24 C         143.0356  134.4292  155.3940 C.ar    1  UNL1        0.1649
     25 C         138.9356  137.4176  164.8660 C.3     1  UNL1        0.0761
     26 C         138.6090  138.5701  165.7690 C.3     1  UNL1        0.0646
     27 C         139.6979  139.4920  166.2321 C.3     1  UNL1        0.2068
     28 O         139.3677  140.8970  166.6405 O.3     1  UNL1       -0.4754
     29 C         139.3451  141.9907  165.6140 C.ar    1  UNL1        0.1386
     30 C         138.1966  142.0955  164.6549 C.ar    1  UNL1        0.0376
     31 C         138.1741  143.1891  163.6286 C.ar    1  UNL1        0.0134
     32 C         139.3000  144.1779  163.5613 C.ar    1  UNL1        0.0686
     33 C         140.4485  144.0731  164.5205 C.ar    1  UNL1        0.0134
     34 C         140.4711  142.9795  165.5468 C.ar    1  UNL1        0.0376
     35 C         139.2774  145.2716  162.5349 C.1     1  UNL1        0.1004
     36 N         139.2548  146.3652  161.5085 N.1     1  UNL1       -0.1908
@<TRIPOS>BOND
     1    17    18    1
     2    18    19   ar
     3    19    20   ar
     4    20    21    1
     5    20    22   ar
     6    22    23    1
     7    22    24   ar
     8    24    14    1
     9    14    15    2
    10    14    16    2
    11    14    12    1
    12    12    11    1
    13    11    10    1
    14    10     1    1
    15     1     2    1
    16     2     3    1
    17     3     4    1
    18     4     5    1
    19     5    25    1
    20    25    26    1
    21    26    27    1
    22    27    28    1
    23    28    29    1
    24    29    30   ar
    25    30    31   ar
    26    31    32   ar
    27    32    35    1
    28    35    36    3
    29    32    33   ar
    30    33    34   ar
    31     5     6    1
    32     6     7    1
    33     7     8    1
    34     7     9    1
    35    24    18   ar
    36     8     1    1
    37     9     3    1
    38    34    29   ar
    39    12    13    1
