@<TRIPOS>MOLECULE
*****
 27 30 0 0 0
SMALL
GASTEIGER

@<TRIPOS>ATOM
      1 C         142.2246  137.9604  159.5979 C.3     1  UNL1        0.0523
      2 C         141.8683  138.0501  161.0523 C.ar    1  UNL1        0.0653
      3 C         142.9325  138.3401  162.0687 C.ar    1  UNL1        0.0490
      4 C         142.5762  138.4299  163.5230 C.ar    1  UNL1        0.1342
      5 N         141.1556  138.2295  163.9609 N.ar    1  UNL1       -0.1816
      6 N         140.5088  138.2585  165.3139 N.ar    1  UNL1       -0.1409
      7 C         139.0448  137.9863  165.1337 C.ar    1  UNL1        0.2227
      8 N         138.7867  137.7891  163.6693 N.ar    1  UNL1       -0.1880
      9 C         140.0913  137.9395  162.9444 C.ar    1  UNL1        0.2552
     10 N         140.4477  137.8498  161.4901 N.ar    1  UNL1       -0.2142
     11 C         138.0188  137.9224  166.2261 C.3     1  UNL1        0.3163
     12 C         136.9929  137.8586  167.3185 C.3     1  UNL1        0.0805
     13 F         138.0595  136.4238  166.1767 F       1  UNL1       -0.1962
     14 F         137.9782  139.4211  166.2755 F       1  UNL1       -0.1962
     15 N         143.6406  138.7199  164.5395 N.pl3   1  UNL1       -0.3189
     16 H         144.5650  138.4192  164.3837 H       1  UNL1        0.1482
     17 C         143.2965  139.4681  165.7931 C.3     1  UNL1        0.0790
     18 C         143.1478  138.8734  167.1622 C.3     1  UNL1        0.0459
     19 C         142.8001  139.9802  168.1130 C.ar    1  UNL1       -0.0220
     20 C         142.5352  139.9888  169.5894 C.ar    1  UNL1        0.0274
     21 C         142.2040  141.2762  170.2845 C.ar    1  UNL1        0.1670
     22 F         141.9391  141.2849  171.7608 F       1  UNL1       -0.2018
     23 C         142.1377  142.5549  169.5031 C.ar    1  UNL1        0.1670
     24 F         141.8065  143.8422  170.1981 F       1  UNL1       -0.2018
     25 C         142.4026  142.5462  168.0267 C.ar    1  UNL1        0.0274
     26 C         142.7338  141.2589  167.3317 C.ar    1  UNL1       -0.0220
     27 C         143.0406  140.9424  165.8979 C.3     1  UNL1        0.0459
@<TRIPOS>BOND
     1     1     2    1
     2     2     3   ar
     3     3     4   ar
     4     4    15    1
     5    15    17    1
     6    17    18    1
     7    18    19    1
     8    19    20   ar
     9    20    21   ar
    10    21    22    1
    11    21    23   ar
    12    23    24    1
    13    23    25   ar
    14    25    26   ar
    15    26    27    1
    16     4     5   ar
    17     5     6   ar
    18     6     7   ar
    19     7    11    1
    20    11    12    1
    21    11    13    1
    22    11    14    1
    23     7     8   ar
    24     8     9   ar
    25     9    10   ar
    26    10     2   ar
    27    27    17    1
    28     9     5   ar
    29    26    19   ar
    30    15    16    1
@<TRIPOS>MOLECULE
*****
 27 30 0 0 0
SMALL
GASTEIGER

@<TRIPOS>ATOM
      1 C         139.7959  140.2564  170.5800 C.3     1  UNL1        0.0523
      2 C         139.9006  140.2599  169.0836 C.ar    1  UNL1        0.0653
      3 C         140.9571  141.0824  168.4076 C.ar    1  UNL1        0.0490
      4 C         141.0618  141.0859  166.9112 C.ar    1  UNL1        0.1342
      5 N         140.1098  140.2668  166.0909 N.ar    1  UNL1       -0.1816
      6 N         139.9711  140.0732  164.6099 N.ar    1  UNL1       -0.1409
      7 C         138.8288  139.1309  164.3707 C.ar    1  UNL1        0.2227
      8 N         138.2615  138.7422  165.7038 N.ar    1  UNL1       -0.1880
      9 C         139.0533  139.4442  166.7670 C.ar    1  UNL1        0.2552
     10 N         138.9487  139.4407  168.2633 N.ar    1  UNL1       -0.2142
     11 C         138.3396  138.6600  163.0332 C.3     1  UNL1        0.3163
     12 C         137.8504  138.1890  161.6957 C.3     1  UNL1        0.0805
     13 F         137.6579  139.9787  162.8182 F       1  UNL1       -0.1962
     14 F         139.0212  137.3412  163.2482 F       1  UNL1       -0.1962
     15 N         142.1184  141.9085  166.2352 N.pl3   1  UNL1       -0.3189
     16 H         143.0451  141.8883  166.5668 H       1  UNL1        0.1482
     17 C         141.7630  142.7619  165.0539 C.3     1  UNL1        0.0790
     18 C         142.4750  142.7809  163.7338 C.3     1  UNL1        0.0459
     19 C         141.7851  143.7768  162.8494 C.ar    1  UNL1       -0.0220
     20 C         142.0464  144.2177  161.4397 C.ar    1  UNL1        0.0274
     21 C         141.1694  145.2550  160.8034 C.ar    1  UNL1        0.1670
     22 F         141.4307  145.6958  159.3937 F       1  UNL1       -0.2018
     23 C         140.0311  145.8516  161.5769 C.ar    1  UNL1        0.1670
     24 F         139.1541  146.8889  160.9407 F       1  UNL1       -0.2018
     25 C         139.7698  145.4108  162.9867 C.ar    1  UNL1        0.0274
     26 C         140.6468  144.3734  163.6229 C.ar    1  UNL1       -0.0220
     27 C         140.6331  143.7461  164.9854 C.3     1  UNL1        0.0459
@<TRIPOS>BOND
     1     1     2    1
     2     2     3   ar
     3     3     4   ar
     4     4    15    1
     5    15    17    1
     6    17    18    1
     7    18    19    1
     8    19    20   ar
     9    20    21   ar
    10    21    22    1
    11    21    23   ar
    12    23    24    1
    13    23    25   ar
    14    25    26   ar
    15    26    27    1
    16     4     5   ar
    17     5     6   ar
    18     6     7   ar
    19     7    11    1
    20    11    12    1
    21    11    13    1
    22    11    14    1
    23     7     8   ar
    24     8     9   ar
    25     9    10   ar
    26    10     2   ar
    27    27    17    1
    28     9     5   ar
    29    26    19   ar
    30    15    16    1
@<TRIPOS>MOLECULE
*****
 27 30 0 0 0
SMALL
GASTEIGER

@<TRIPOS>ATOM
      1 C         139.5972  146.6323  161.6064 C.3     1  UNL1        0.0523
      2 C         139.8401  145.2623  162.1670 C.ar    1  UNL1        0.0653
      3 C         140.9460  145.0419  163.1560 C.ar    1  UNL1        0.0490
      4 C         141.1889  143.6719  163.7166 C.ar    1  UNL1        0.1342
      5 N         140.3258  142.5224  163.2881 N.ar    1  UNL1       -0.1816
      6 N         140.3270  141.0709  163.6662 N.ar    1  UNL1       -0.1409
      7 C         139.2218  140.3942  162.9108 C.ar    1  UNL1        0.2227
      8 N         138.5375  141.4276  162.0658 N.ar    1  UNL1       -0.1880
      9 C         139.2199  142.7429  162.2990 C.ar    1  UNL1        0.2552
     10 N         138.9770  144.1128  161.7384 N.ar    1  UNL1       -0.2142
     11 C         138.8637  138.9396  162.9870 C.3     1  UNL1        0.3163
     12 C         138.5056  137.4850  163.0632 C.3     1  UNL1        0.0805
     13 F         137.6043  139.2094  162.2182 F       1  UNL1       -0.1962
     14 F         140.1231  138.6698  163.7558 F       1  UNL1       -0.1962
     15 N         142.2949  143.4516  164.7058 N.pl3   1  UNL1       -0.3189
     16 H         143.1648  143.8946  164.5783 H       1  UNL1        0.1482
     17 C         142.0755  142.5561  165.8890 C.3     1  UNL1        0.0790
     18 C         142.9505  141.4098  166.3015 C.3     1  UNL1        0.0459
     19 C         142.3583  140.7951  167.5349 C.ar    1  UNL1       -0.0220
     20 C         142.7888  139.6365  168.3848 C.ar    1  UNL1        0.0274
     21 C         141.9782  139.2442  169.5844 C.ar    1  UNL1        0.1670
     22 F         142.4086  138.0856  170.4342 F       1  UNL1       -0.2018
     23 C         140.7371  140.0106  169.9342 C.ar    1  UNL1        0.1670
     24 F         139.9265  139.6184  171.1338 F       1  UNL1       -0.2018
     25 C         140.3066  141.1692  169.0843 C.ar    1  UNL1        0.0274
     26 C         141.1172  141.5615  167.8847 C.ar    1  UNL1       -0.0220
     27 C         140.9424  142.6499  166.8674 C.3     1  UNL1        0.0459
@<TRIPOS>BOND
     1     1     2    1
     2     2     3   ar
     3     3     4   ar
     4     4    15    1
     5    15    17    1
     6    17    18    1
     7    18    19    1
     8    19    20   ar
     9    20    21   ar
    10    21    22    1
    11    21    23   ar
    12    23    24    1
    13    23    25   ar
    14    25    26   ar
    15    26    27    1
    16     4     5   ar
    17     5     6   ar
    18     6     7   ar
    19     7    11    1
    20    11    12    1
    21    11    13    1
    22    11    14    1
    23     7     8   ar
    24     8     9   ar
    25     9    10   ar
    26    10     2   ar
    27    27    17    1
    28     9     5   ar
    29    26    19   ar
    30    15    16    1
@<TRIPOS>MOLECULE
*****
 27 30 0 0 0
SMALL
GASTEIGER

@<TRIPOS>ATOM
      1 C         140.3252  145.9161  158.0407 C.3     1  UNL1        0.0523
      2 C         140.8335  145.3196  159.3198 C.ar    1  UNL1        0.0653
      3 C         140.0232  145.4379  160.5764 C.ar    1  UNL1        0.0490
      4 C         140.5315  144.8413  161.8555 C.ar    1  UNL1        0.1342
      5 N         141.8500  144.1265  161.8777 N.ar    1  UNL1       -0.1816
      6 N         142.6027  143.4431  162.9806 N.ar    1  UNL1       -0.1409
      7 C         143.8781  142.9024  162.4054 C.ar    1  UNL1        0.2227
      8 N         143.9137  143.2517  160.9471 N.ar    1  UNL1       -0.1880
      9 C         142.6603  144.0083  160.6209 C.ar    1  UNL1        0.2552
     10 N         142.1520  144.6048  159.3420 N.ar    1  UNL1       -0.2142
     11 C         144.9328  142.1453  163.1567 C.3     1  UNL1        0.3163
     12 C         145.9876  141.3882  163.9079 C.3     1  UNL1        0.0805
     13 F         145.0418  141.1707  162.0216 F       1  UNL1       -0.1962
     14 F         144.8239  143.1198  164.2917 F       1  UNL1       -0.1962
     15 N         139.7211  144.9596  163.1123 N.pl3   1  UNL1       -0.3189
     16 H         139.2799  145.8110  163.3352 H       1  UNL1        0.1482
     17 C         139.5830  143.7808  164.0294 C.3     1  UNL1        0.0790
     18 C         140.2474  143.6198  165.3646 C.3     1  UNL1        0.0459
     19 C         139.8313  142.2954  165.9327 C.ar    1  UNL1       -0.0220
     20 C         140.1724  141.6032  167.2189 C.ar    1  UNL1        0.0274
     21 C         139.5920  140.2534  167.5212 C.ar    1  UNL1        0.1670
     22 F         139.9332  139.5613  168.8074 F       1  UNL1       -0.2018
     23 C         138.6705  139.5959  166.5371 C.ar    1  UNL1        0.1670
     24 F         138.0901  138.2461  166.8393 F       1  UNL1       -0.2018
     25 C         138.3294  140.2881  165.2508 C.ar    1  UNL1        0.0274
     26 C         138.9098  141.6378  164.9487 C.ar    1  UNL1       -0.0220
     27 C         138.7563  142.5559  163.7723 C.3     1  UNL1        0.0459
@<TRIPOS>BOND
     1     1     2    1
     2     2     3   ar
     3     3     4   ar
     4     4    15    1
     5    15    17    1
     6    17    18    1
     7    18    19    1
     8    19    20   ar
     9    20    21   ar
    10    21    22    1
    11    21    23   ar
    12    23    24    1
    13    23    25   ar
    14    25    26   ar
    15    26    27    1
    16     4     5   ar
    17     5     6   ar
    18     6     7   ar
    19     7    11    1
    20    11    12    1
    21    11    13    1
    22    11    14    1
    23     7     8   ar
    24     8     9   ar
    25     9    10   ar
    26    10     2   ar
    27    27    17    1
    28     9     5   ar
    29    26    19   ar
    30    15    16    1
@<TRIPOS>MOLECULE
*****
 27 30 0 0 0
SMALL
GASTEIGER

@<TRIPOS>ATOM
      1 C         143.9943  137.7023  161.0088 C.3     1  UNL1        0.0523
      2 C         143.5457  138.9823  161.6494 C.ar    1  UNL1        0.0653
      3 C         143.9803  139.3146  163.0460 C.ar    1  UNL1        0.0490
      4 C         143.5317  140.5946  163.6866 C.ar    1  UNL1        0.1342
      5 N         142.6485  141.5423  162.9305 N.ar    1  UNL1       -0.1816
      6 N         142.0515  142.8683  163.2987 N.ar    1  UNL1       -0.1409
      7 C         141.2480  143.3554  162.1295 C.ar    1  UNL1        0.2227
      8 N         141.3483  142.3306  161.0388 N.ar    1  UNL1       -0.1880
      9 C         142.2139  141.2101  161.5338 C.ar    1  UNL1        0.2552
     10 N         142.6625  139.9301  160.8933 N.ar    1  UNL1       -0.2142
     11 C         140.4790  144.6416  162.0628 C.3     1  UNL1        0.3163
     12 C         139.7101  145.9278  161.9961 C.3     1  UNL1        0.0805
     13 F         139.2183  143.8741  161.7956 F       1  UNL1       -0.1962
     14 F         141.7398  145.4092  162.3300 F       1  UNL1       -0.1962
     15 N         143.9663  140.9268  165.0834 N.pl3   1  UNL1       -0.3189
     16 H         144.9215  141.0553  165.2842 H       1  UNL1        0.1482
     17 C         142.9457  141.0634  166.1740 C.3     1  UNL1        0.0790
     18 C         141.8876  140.0587  166.5222 C.3     1  UNL1        0.0459
     19 C         141.0919  140.6030  167.6713 C.ar    1  UNL1       -0.0220
     20 C         139.9248  140.0508  168.4349 C.ar    1  UNL1        0.0274
     21 C         139.3240  140.8396  169.5605 C.ar    1  UNL1        0.1670
     22 F         138.1570  140.2874  170.3240 F       1  UNL1       -0.2018
     23 C         139.8903  142.1806  169.9225 C.ar    1  UNL1        0.1670
     24 F         139.2895  142.9693  171.0480 F       1  UNL1       -0.2018
     25 C         141.0574  142.7328  169.1589 C.ar    1  UNL1        0.0274
     26 C         141.6581  141.9440  168.0334 C.ar    1  UNL1       -0.0220
     27 C         142.8039  142.2285  167.1079 C.3     1  UNL1        0.0459
@<TRIPOS>BOND
     1     1     2    1
     2     2     3   ar
     3     3     4   ar
     4     4    15    1
     5    15    17    1
     6    17    18    1
     7    18    19    1
     8    19    20   ar
     9    20    21   ar
    10    21    22    1
    11    21    23   ar
    12    23    24    1
    13    23    25   ar
    14    25    26   ar
    15    26    27    1
    16     4     5   ar
    17     5     6   ar
    18     6     7   ar
    19     7    11    1
    20    11    12    1
    21    11    13    1
    22    11    14    1
    23     7     8   ar
    24     8     9   ar
    25     9    10   ar
    26    10     2   ar
    27    27    17    1
    28     9     5   ar
    29    26    19   ar
    30    15    16    1
@<TRIPOS>MOLECULE
*****
 27 30 0 0 0
SMALL
GASTEIGER

@<TRIPOS>ATOM
      1 C         145.5340  141.4448  163.5773 C.3     1  UNL1        0.0523
      2 C         144.2930  141.9944  162.9386 C.ar    1  UNL1        0.0653
      3 C         142.9613  141.8062  163.6027 C.ar    1  UNL1        0.0490
      4 C         141.7203  142.3558  162.9640 C.ar    1  UNL1        0.1342
      5 N         141.8111  143.0938  161.6613 N.ar    1  UNL1       -0.1816
      6 N         140.7681  143.7426  160.8005 N.ar    1  UNL1       -0.1409
      7 C         141.4552  144.3319  159.6044 C.ar    1  UNL1        0.2227
      8 N         142.9229  144.0473  159.7260 N.ar    1  UNL1       -0.1880
      9 C         143.1429  143.2821  160.9972 C.ar    1  UNL1        0.2552
     10 N         144.3838  142.7324  161.6359 N.ar    1  UNL1       -0.2142
     11 C         140.7912  145.0754  158.4835 C.3     1  UNL1        0.3163
     12 C         140.1272  145.8188  157.3626 C.3     1  UNL1        0.0805
     13 F         139.6170  144.1452  158.5622 F       1  UNL1       -0.1962
     14 F         141.9653  146.0055  158.4049 F       1  UNL1       -0.1962
     15 N         140.3885  142.1675  163.6281 N.pl3   1  UNL1       -0.3189
     16 H         139.5638  142.1834  163.0907 H       1  UNL1        0.1482
     17 C         140.3134  141.9549  165.1110 C.3     1  UNL1        0.0790
     18 C         139.9218  140.6816  165.8005 C.3     1  UNL1        0.0459
     19 C         139.9830  140.9181  167.2804 C.ar    1  UNL1       -0.0220
     20 C         139.7032  140.0243  168.4521 C.ar    1  UNL1        0.0274
     21 C         139.8528  140.5500  169.8491 C.ar    1  UNL1        0.1670
     22 F         139.5731  139.6562  171.0207 F       1  UNL1       -0.2018
     23 C         140.2822  141.9694  170.0743 C.ar    1  UNL1        0.1670
     24 F         140.4319  142.4951  171.4711 F       1  UNL1       -0.2018
     25 C         140.5620  142.8632  168.9026 C.ar    1  UNL1        0.0274
     26 C         140.4124  142.3375  167.5057 C.ar    1  UNL1       -0.0220
     27 C         140.6166  142.9783  166.1649 C.3     1  UNL1        0.0459
@<TRIPOS>BOND
     1     1     2    1
     2     2     3   ar
     3     3     4   ar
     4     4    15    1
     5    15    17    1
     6    17    18    1
     7    18    19    1
     8    19    20   ar
     9    20    21   ar
    10    21    22    1
    11    21    23   ar
    12    23    24    1
    13    23    25   ar
    14    25    26   ar
    15    26    27    1
    16     4     5   ar
    17     5     6   ar
    18     6     7   ar
    19     7    11    1
    20    11    12    1
    21    11    13    1
    22    11    14    1
    23     7     8   ar
    24     8     9   ar
    25     9    10   ar
    26    10     2   ar
    27    27    17    1
    28     9     5   ar
    29    26    19   ar
    30    15    16    1
@<TRIPOS>MOLECULE
*****
 27 30 0 0 0
SMALL
GASTEIGER

@<TRIPOS>ATOM
      1 C         137.5924  144.3960  164.7038 C.3     1  UNL1        0.0523
      2 C         138.7264  144.3216  163.7247 C.ar    1  UNL1        0.0653
      3 C         140.0061  143.6402  164.1094 C.ar    1  UNL1        0.0490
      4 C         141.1401  143.5659  163.1303 C.ar    1  UNL1        0.1342
      5 N         140.9942  144.1729  161.7664 N.ar    1  UNL1       -0.1816
      6 N         141.9323  144.2548  160.5988 N.ar    1  UNL1       -0.1409
      7 C         141.2323  144.9869  159.4924 C.ar    1  UNL1        0.2227
      8 N         139.8616  145.3574  159.9762 N.ar    1  UNL1       -0.1880
      9 C         139.7145  144.8543  161.3816 C.ar    1  UNL1        0.2552
     10 N         138.5806  144.9287  162.3608 N.ar    1  UNL1       -0.2142
     11 C         141.8028  145.2945  158.1396 C.3     1  UNL1        0.3163
     12 C         142.3732  145.6020  156.7868 C.3     1  UNL1        0.0805
     13 F         142.9002  144.2997  158.3762 F       1  UNL1       -0.1962
     14 F         140.7053  146.2892  157.9029 F       1  UNL1       -0.1962
     15 N         142.4198  142.8844  163.5151 N.pl3   1  UNL1       -0.3189
     16 H         143.1865  142.8920  162.8976 H       1  UNL1        0.1482
     17 C         142.5312  142.1914  164.8407 C.3     1  UNL1        0.0790
     18 C         142.6944  142.8594  166.1738 C.3     1  UNL1        0.0459
     19 C         142.7631  141.7896  167.2229 C.ar    1  UNL1       -0.0220
     20 C         142.9200  141.8539  168.7133 C.ar    1  UNL1        0.0274
     21 C         142.9562  140.5891  169.5191 C.ar    1  UNL1        0.1670
     22 F         143.1131  140.6535  171.0094 F       1  UNL1       -0.2018
     23 C         142.8355  139.2600  168.8343 C.ar    1  UNL1        0.1670
     24 F         142.8716  137.9953  169.6400 F       1  UNL1       -0.2018
     25 C         142.6786  139.1957  167.3439 C.ar    1  UNL1        0.0274
     26 C         142.6424  140.4604  166.5383 C.ar    1  UNL1       -0.0220
     27 C         142.4991  140.7088  165.0659 C.3     1  UNL1        0.0459
@<TRIPOS>BOND
     1     1     2    1
     2     2     3   ar
     3     3     4   ar
     4     4    15    1
     5    15    17    1
     6    17    18    1
     7    18    19    1
     8    19    20   ar
     9    20    21   ar
    10    21    22    1
    11    21    23   ar
    12    23    24    1
    13    23    25   ar
    14    25    26   ar
    15    26    27    1
    16     4     5   ar
    17     5     6   ar
    18     6     7   ar
    19     7    11    1
    20    11    12    1
    21    11    13    1
    22    11    14    1
    23     7     8   ar
    24     8     9   ar
    25     9    10   ar
    26    10     2   ar
    27    27    17    1
    28     9     5   ar
    29    26    19   ar
    30    15    16    1
@<TRIPOS>MOLECULE
*****
 27 30 0 0 0
SMALL
GASTEIGER

@<TRIPOS>ATOM
      1 C         145.6279  140.6811  155.7761 C.3     1  UNL1        0.0523
      2 C         144.6419  139.5712  155.9907 C.ar    1  UNL1        0.0653
      3 C         143.3299  139.8526  156.6610 C.ar    1  UNL1        0.0490
      4 C         142.3440  138.7426  156.8757 C.ar    1  UNL1        0.1342
      5 N         142.6702  137.3513  156.4199 N.ar    1  UNL1       -0.1816
      6 N         141.9024  136.0648  156.4946 N.ar    1  UNL1       -0.1409
      7 C         142.7400  134.9883  155.8705 C.ar    1  UNL1        0.2227
      8 N         144.0254  135.6094  155.4100 N.ar    1  UNL1       -0.1880
      9 C         143.9822  137.0699  155.7496 C.ar    1  UNL1        0.2552
     10 N         144.9681  138.1798  155.5350 N.ar    1  UNL1       -0.2142
     11 C         142.3592  133.5442  155.7312 C.3     1  UNL1        0.3163
     12 C         141.9783  132.1000  155.5920 C.3     1  UNL1        0.0805
     13 F         141.9579  133.7874  154.3065 F       1  UNL1       -0.1962
     14 F         142.7604  133.3009  157.1560 F       1  UNL1       -0.1962
     15 N         141.0319  139.0241  157.5460 N.pl3   1  UNL1       -0.3189
     16 H         140.2981  139.4387  157.0372 H       1  UNL1        0.1482
     17 C         140.8379  138.6739  158.9916 C.3     1  UNL1        0.0790
     18 C         139.5246  138.6007  159.7125 C.3     1  UNL1        0.0459
     19 C         139.7982  138.2170  161.1365 C.ar    1  UNL1       -0.0220
     20 C         138.8890  137.9957  162.3088 C.ar    1  UNL1        0.0274
     21 C         139.4623  137.6104  163.6404 C.ar    1  UNL1        0.1670
     22 F         138.5531  137.3891  164.8127 F       1  UNL1       -0.2018
     23 C         140.9448  137.4464  163.7995 C.ar    1  UNL1        0.1670
     24 F         141.5181  137.0611  165.1310 F       1  UNL1       -0.2018
     25 C         141.8540  137.6677  162.6272 C.ar    1  UNL1        0.0274
     26 C         141.2807  138.0530  161.2957 C.ar    1  UNL1       -0.0220
     27 C         141.9233  138.3354  159.9700 C.3     1  UNL1        0.0459
@<TRIPOS>BOND
     1     1     2    1
     2     2     3   ar
     3     3     4   ar
     4     4    15    1
     5    15    17    1
     6    17    18    1
     7    18    19    1
     8    19    20   ar
     9    20    21   ar
    10    21    22    1
    11    21    23   ar
    12    23    24    1
    13    23    25   ar
    14    25    26   ar
    15    26    27    1
    16     4     5   ar
    17     5     6   ar
    18     6     7   ar
    19     7    11    1
    20    11    12    1
    21    11    13    1
    22    11    14    1
    23     7     8   ar
    24     8     9   ar
    25     9    10   ar
    26    10     2   ar
    27    27    17    1
    28     9     5   ar
    29    26    19   ar
    30    15    16    1
@<TRIPOS>MOLECULE
*****
 27 30 0 0 0
SMALL
GASTEIGER

@<TRIPOS>ATOM
      1 C         142.5554  137.7920  157.1980 C.3     1  UNL1        0.0523
      2 C         142.7296  138.5237  158.4958 C.ar    1  UNL1        0.0653
      3 C         142.7719  137.7613  159.7868 C.ar    1  UNL1        0.0490
      4 C         142.9461  138.4930  161.0847 C.ar    1  UNL1        0.1342
      5 N         143.0780  139.9872  161.0913 N.ar    1  UNL1       -0.1816
      6 N         143.2592  140.9738  162.2066 N.ar    1  UNL1       -0.1409
      7 C         143.3289  142.3460  161.6047 C.ar    1  UNL1        0.2227
      8 N         143.1909  142.2074  160.1175 N.ar    1  UNL1       -0.1880
      9 C         143.0358  140.7496  159.8002 C.ar    1  UNL1        0.2552
     10 N         142.8616  140.0178  158.5024 N.ar    1  UNL1       -0.2142
     11 C         143.5057  143.6311  162.3578 C.3     1  UNL1        0.3163
     12 C         143.6825  144.9163  163.1109 C.3     1  UNL1        0.0805
     13 F         144.9262  143.7140  161.8830 F       1  UNL1       -0.1962
     14 F         142.0853  143.5483  162.8326 F       1  UNL1       -0.1962
     15 N         142.9883  137.7305  162.3758 N.pl3   1  UNL1       -0.3189
     16 H         143.6633  137.0264  162.5098 H       1  UNL1        0.1482
     17 C         142.0022  138.0408  163.4626 C.3     1  UNL1        0.0790
     18 C         142.2344  138.9546  164.6292 C.3     1  UNL1        0.0459
     19 C         140.9864  138.9702  165.4613 C.ar    1  UNL1       -0.0220
     20 C         140.6340  139.6909  166.7287 C.ar    1  UNL1        0.0274
     21 C         139.2782  139.5075  167.3438 C.ar    1  UNL1        0.1670
     22 F         138.9259  140.2282  168.6112 F       1  UNL1       -0.2018
     23 C         138.2748  138.6034  166.6914 C.ar    1  UNL1        0.1670
     24 F         136.9191  138.4200  167.3064 F       1  UNL1       -0.2018
     25 C         138.6272  137.8827  165.4239 C.ar    1  UNL1        0.0274
     26 C         139.9829  138.0661  164.8089 C.ar    1  UNL1       -0.0220
     27 C         140.6108  137.4916  163.5736 C.3     1  UNL1        0.0459
@<TRIPOS>BOND
     1     1     2    1
     2     2     3   ar
     3     3     4   ar
     4     4    15    1
     5    15    17    1
     6    17    18    1
     7    18    19    1
     8    19    20   ar
     9    20    21   ar
    10    21    22    1
    11    21    23   ar
    12    23    24    1
    13    23    25   ar
    14    25    26   ar
    15    26    27    1
    16     4     5   ar
    17     5     6   ar
    18     6     7   ar
    19     7    11    1
    20    11    12    1
    21    11    13    1
    22    11    14    1
    23     7     8   ar
    24     8     9   ar
    25     9    10   ar
    26    10     2   ar
    27    27    17    1
    28     9     5   ar
    29    26    19   ar
    30    15    16    1
