@<TRIPOS>MOLECULE
*****
 35 38 0 0 0
SMALL
GASTEIGER

@<TRIPOS>ATOM
      1 C         142.1051  140.8629  167.3773 C.ar    1  UNL1        0.1432
      2 C         143.2687  141.7301  167.7566 C.ar    1  UNL1        0.0371
      3 C         143.2750  142.4412  169.0773 C.ar    1  UNL1        0.0047
      4 C         142.1177  142.2851  170.0187 C.ar    1  UNL1        0.0195
      5 C         140.9541  141.4179  169.6394 C.ar    1  UNL1        0.0887
      6 N         139.7968  141.2618  170.5809 N.ar    1  UNL1       -0.2238
      7 C         138.6332  140.3946  170.2016 C.ar    1  UNL1        0.2000
      8 N         138.6268  139.6835  168.8808 N.ar    1  UNL1       -0.2088
      9 C         139.7841  139.8395  167.9394 C.ar    1  UNL1        0.1383
     10 C         140.9478  140.7068  168.3187 C.ar    1  UNL1        0.0833
     11 N         139.7778  139.1284  166.6187 N.pl3   1  UNL1       -0.2977
     12 H         140.1804  138.2335  166.5396 H       1  UNL1        0.1536
     13 C         139.1581  139.7808  165.4186 C.ar    1  UNL1        0.0504
     14 C         138.9238  138.9844  164.1693 C.ar    1  UNL1        0.0178
     15 C         138.3041  139.6369  162.9691 C.ar    1  UNL1        0.0391
     16 C         137.9187  141.0857  163.0183 C.ar    1  UNL1        0.1496
     17 C         138.1531  141.8821  164.2677 C.ar    1  UNL1        0.0928
     18 CL        137.7678  143.3309  164.3169 Cl      1  UNL1       -0.0790
     19 C         138.7727  141.2297  165.4678 C.ar    1  UNL1        0.0291
     20 O         137.2991  141.7381  161.8182 O.3     1  UNL1       -0.4681
     21 C         138.1718  142.2905  160.7305 C.3     1  UNL1        0.2508
     22 C         139.3764  143.1131  161.0805 C.ar    1  UNL1        0.1026
     23 C         140.7318  142.4727  161.1348 C.ar    1  UNL1        0.0185
     24 C         141.9364  143.2951  161.4848 C.ar    1  UNL1        0.0029
     25 C         141.7856  144.7579  161.7805 C.ar    1  UNL1        0.0207
     26 C         140.4302  145.3983  161.7261 C.ar    1  UNL1        0.0986
     27 N         139.2257  144.5759  161.3762 N.ar    1  UNL1       -0.2445
     28 O         142.0988  140.1518  166.0566 O.3     1  UNL1       -0.4698
     29 C         143.7250  138.1976  166.5917 C.3     1  UNL1        0.0574
     30 C         143.2575  139.2825  165.6673 C.3     1  UNL1        0.2413
     31 C         143.9487  139.4980  164.3536 C.2     1  UNL1        0.2660
     32 O         145.1805  140.3513  164.2853 O.2     1  UNL1       -0.2710
     33 N         143.4082  138.8602  163.1082 N.am    1  UNL1       -0.2731
     34 C         144.0995  139.0758  161.7945 C.3     1  UNL1        0.1150
     35 C         142.1765  138.0069  163.1764 C.3     1  UNL1        0.1150
@<TRIPOS>BOND
     1    30    29    1
     2    30    28    1
     3    28     1    1
     4     1     2   ar
     5     2     3   ar
     6     3     4   ar
     7     4     5   ar
     8     5     6   ar
     9     6     7   ar
    10     7     8   ar
    11     8     9   ar
    12     9    11    1
    13    11    13    1
    14    13    14   ar
    15    14    15   ar
    16    15    16   ar
    17    16    20    1
    18    20    21    1
    19    21    22    1
    20    22    23   ar
    21    23    24   ar
    22    24    25   ar
    23    25    26   ar
    24    26    27   ar
    25    16    17   ar
    26    17    18    1
    27    17    19   ar
    28     9    10   ar
    29    30    31    1
    30    31    32    2
    31    31    33   am
    32    33    34    1
    33    33    35    1
    34    10     1   ar
    35    10     5   ar
    36    19    13   ar
    37    27    22   ar
    38    11    12    1
@<TRIPOS>MOLECULE
*****
 35 38 0 0 0
SMALL
GASTEIGER

@<TRIPOS>ATOM
      1 C         141.2538  142.3555  168.0082 C.ar    1  UNL1        0.1432
      2 C         140.3844  143.3057  168.7771 C.ar    1  UNL1        0.0371
      3 C         140.0016  142.9934  170.1934 C.ar    1  UNL1        0.0047
      4 C         140.4883  141.7310  170.8409 C.ar    1  UNL1        0.0195
      5 C         141.3578  140.7808  170.0721 C.ar    1  UNL1        0.0887
      6 N         141.8445  139.5182  170.7195 N.ar    1  UNL1       -0.2238
      7 C         142.7140  138.5681  169.9507 C.ar    1  UNL1        0.2000
      8 N         143.0967  138.8803  168.5344 N.ar    1  UNL1       -0.2088
      9 C         142.6100  140.1428  167.8869 C.ar    1  UNL1        0.1383
     10 C         141.7405  141.0930  168.6557 C.ar    1  UNL1        0.0833
     11 N         142.9927  140.4550  166.4705 N.pl3   1  UNL1       -0.2977
     12 H         143.6631  141.1515  166.2839 H       1  UNL1        0.1536
     13 C         142.3541  139.7062  165.3386 C.ar    1  UNL1        0.0504
     14 C         142.9458  139.7799  163.9622 C.ar    1  UNL1        0.0178
     15 C         142.3072  139.0310  162.8302 C.ar    1  UNL1        0.0391
     16 C         141.0769  138.2085  163.0746 C.ar    1  UNL1        0.1496
     17 C         140.4852  138.1348  164.4510 C.ar    1  UNL1        0.0928
     18 CL        139.2549  137.3123  164.6954 Cl      1  UNL1       -0.0790
     19 C         141.1238  138.8836  165.5830 C.ar    1  UNL1        0.0291
     20 O         140.4383  137.4596  161.9426 O.3     1  UNL1       -0.4681
     21 C         139.2641  138.0507  161.2202 C.3     1  UNL1        0.2508
     22 C         138.8930  139.4872  161.4413 C.ar    1  UNL1        0.1026
     23 C         137.8233  139.8416  162.4313 C.ar    1  UNL1        0.0185
     24 C         137.4522  141.2781  162.6524 C.ar    1  UNL1        0.0029
     25 C         138.1509  142.3600  161.8836 C.ar    1  UNL1        0.0207
     26 C         139.2206  142.0056  160.8936 C.ar    1  UNL1        0.0986
     27 N         139.5917  140.5692  160.6725 N.ar    1  UNL1       -0.2445
     28 O         141.6365  142.6678  166.5919 O.3     1  UNL1       -0.4698
     29 C         139.3736  141.7864  165.6688 C.3     1  UNL1        0.0574
     30 C         140.5975  142.6390  165.5105 C.3     1  UNL1        0.2413
     31 C         140.7824  143.4628  164.2706 C.2     1  UNL1        0.2660
     32 O         141.8615  143.1106  163.2901 O.2     1  UNL1       -0.2710
     33 N         139.8881  144.6387  164.0113 N.am    1  UNL1       -0.2731
     34 C         140.0729  145.4626  162.7714 C.3     1  UNL1        0.1150
     35 C         138.8089  144.9910  164.9917 C.3     1  UNL1        0.1150
@<TRIPOS>BOND
     1    30    29    1
     2    30    28    1
     3    28     1    1
     4     1     2   ar
     5     2     3   ar
     6     3     4   ar
     7     4     5   ar
     8     5     6   ar
     9     6     7   ar
    10     7     8   ar
    11     8     9   ar
    12     9    11    1
    13    11    13    1
    14    13    14   ar
    15    14    15   ar
    16    15    16   ar
    17    16    20    1
    18    20    21    1
    19    21    22    1
    20    22    23   ar
    21    23    24   ar
    22    24    25   ar
    23    25    26   ar
    24    26    27   ar
    25    16    17   ar
    26    17    18    1
    27    17    19   ar
    28     9    10   ar
    29    30    31    1
    30    31    32    2
    31    31    33   am
    32    33    34    1
    33    33    35    1
    34    10     1   ar
    35    10     5   ar
    36    19    13   ar
    37    27    22   ar
    38    11    12    1
@<TRIPOS>MOLECULE
*****
 35 38 0 0 0
SMALL
GASTEIGER

@<TRIPOS>ATOM
      1 C         139.5395  143.2743  160.0412 C.ar    1  UNL1        0.1432
      2 C         138.4477  142.3688  159.5535 C.ar    1  UNL1        0.0371
      3 C         138.1115  142.3187  158.0925 C.ar    1  UNL1        0.0047
      4 C         138.8671  143.1742  157.1193 C.ar    1  UNL1        0.0195
      5 C         139.9589  144.0797  157.6070 C.ar    1  UNL1        0.0887
      6 N         140.7146  144.9352  156.6338 N.ar    1  UNL1       -0.2238
      7 C         141.8064  145.8407  157.1215 C.ar    1  UNL1        0.2000
      8 N         142.1426  145.8907  158.5825 N.ar    1  UNL1       -0.2088
      9 C         141.3870  145.0353  159.5557 C.ar    1  UNL1        0.1383
     10 C         140.2951  144.1297  159.0680 C.ar    1  UNL1        0.0833
     11 N         141.7232  145.0853  161.0167 N.pl3   1  UNL1       -0.2977
     12 H         141.2616  145.7243  161.6064 H       1  UNL1        0.1536
     13 C         142.7628  144.1619  161.5791 C.ar    1  UNL1        0.0504
     14 C         143.4206  143.1451  160.6940 C.ar    1  UNL1        0.0178
     15 C         144.4603  142.2216  161.2565 C.ar    1  UNL1        0.0391
     16 C         144.8421  142.3149  162.7041 C.ar    1  UNL1        0.1496
     17 C         144.1842  143.3316  163.5892 C.ar    1  UNL1        0.0928
     18 CL        144.5660  143.4249  165.0368 Cl      1  UNL1       -0.0790
     19 C         143.1446  144.2551  163.0268 C.ar    1  UNL1        0.0291
     20 O         145.8816  141.3914  163.2665 O.3     1  UNL1       -0.4681
     21 C         145.4758  140.2717  164.1785 C.3     1  UNL1        0.2508
     22 C         144.2531  139.4591  163.8703 C.ar    1  UNL1        0.1026
     23 C         143.1938  139.2721  164.9157 C.ar    1  UNL1        0.0185
     24 C         141.9712  138.4596  164.6076 C.ar    1  UNL1        0.0029
     25 C         141.8079  137.8341  163.2541 C.ar    1  UNL1        0.0207
     26 C         142.8673  138.0211  162.2087 C.ar    1  UNL1        0.0986
     27 N         144.0899  138.8336  162.5168 N.ar    1  UNL1       -0.2445
     28 O         139.8757  143.3243  161.5022 O.3     1  UNL1       -0.4698
     29 C         138.1774  144.6668  162.9386 C.3     1  UNL1        0.0574
     30 C         138.7779  143.3564  162.5238 C.3     1  UNL1        0.2413
     31 C         138.2805  142.0779  163.1306 C.2     1  UNL1        0.2660
     32 O         136.9763  141.4907  162.6785 O.2     1  UNL1       -0.2710
     33 N         139.0872  141.3866  164.1894 N.am    1  UNL1       -0.2731
     34 C         138.5898  140.1081  164.7962 C.3     1  UNL1        0.1150
     35 C         140.3914  141.9737  164.6415 C.3     1  UNL1        0.1150
@<TRIPOS>BOND
     1    30    29    1
     2    30    28    1
     3    28     1    1
     4     1     2   ar
     5     2     3   ar
     6     3     4   ar
     7     4     5   ar
     8     5     6   ar
     9     6     7   ar
    10     7     8   ar
    11     8     9   ar
    12     9    11    1
    13    11    13    1
    14    13    14   ar
    15    14    15   ar
    16    15    16   ar
    17    16    20    1
    18    20    21    1
    19    21    22    1
    20    22    23   ar
    21    23    24   ar
    22    24    25   ar
    23    25    26   ar
    24    26    27   ar
    25    16    17   ar
    26    17    18    1
    27    17    19   ar
    28     9    10   ar
    29    30    31    1
    30    31    32    2
    31    31    33   am
    32    33    34    1
    33    33    35    1
    34    10     1   ar
    35    10     5   ar
    36    19    13   ar
    37    27    22   ar
    38    11    12    1
@<TRIPOS>MOLECULE
*****
 35 38 0 0 0
SMALL
GASTEIGER

@<TRIPOS>ATOM
      1 C         140.1201  139.2860  165.5929 C.ar    1  UNL1        0.1432
      2 C         139.2024  138.2349  165.0425 C.ar    1  UNL1        0.0371
      3 C         138.0556  137.7331  165.8689 C.ar    1  UNL1        0.0047
      4 C         137.8264  138.2824  167.2457 C.ar    1  UNL1        0.0195
      5 C         138.7441  139.3336  167.7961 C.ar    1  UNL1        0.0887
      6 N         138.5149  139.8830  169.1730 N.ar    1  UNL1       -0.2238
      7 C         139.4325  140.9341  169.7234 C.ar    1  UNL1        0.2000
      8 N         140.5794  141.4359  168.8970 N.ar    1  UNL1       -0.2088
      9 C         140.8086  140.8866  167.5202 C.ar    1  UNL1        0.1383
     10 C         139.8909  139.8354  166.9697 C.ar    1  UNL1        0.0833
     11 N         141.9554  141.3884  166.6938 N.pl3   1  UNL1       -0.2977
     12 H         142.8446  140.9754  166.7835 H       1  UNL1        0.1536
     13 C         141.7475  142.5193  165.7307 C.ar    1  UNL1        0.0504
     14 C         142.8812  142.9869  164.8669 C.ar    1  UNL1        0.0178
     15 C         142.6732  144.1179  163.9037 C.ar    1  UNL1        0.0391
     16 C         141.3316  144.7813  163.8044 C.ar    1  UNL1        0.1496
     17 C         140.1979  144.3138  164.6682 C.ar    1  UNL1        0.0928
     18 CL        138.8563  144.9771  164.5688 Cl      1  UNL1       -0.0790
     19 C         140.4058  143.1828  165.6313 C.ar    1  UNL1        0.0291
     20 O         141.1236  145.9123  162.8413 O.3     1  UNL1       -0.4681
     21 C         140.1880  145.7466  161.6806 C.3     1  UNL1        0.2508
     22 C         140.3338  144.5698  160.7619 C.ar    1  UNL1        0.1026
     23 C         141.6880  144.1869  160.2426 C.ar    1  UNL1        0.0185
     24 C         141.8337  143.0102  159.3239 C.ar    1  UNL1        0.0029
     25 C         140.6254  142.2164  158.9245 C.ar    1  UNL1        0.0207
     26 C         139.2712  142.5993  159.4437 C.ar    1  UNL1        0.0986
     27 N         139.1254  143.7760  160.3624 N.ar    1  UNL1       -0.2445
     28 O         141.2669  139.7878  164.7665 O.3     1  UNL1       -0.4698
     29 C         140.4017  140.8824  162.5749 C.3     1  UNL1        0.0574
     30 C         141.1663  139.7950  163.2699 C.3     1  UNL1        0.2413
     31 C         141.8302  138.7149  162.4683 C.2     1  UNL1        0.2660
     32 O         141.0496  137.5044  162.0495 O.2     1  UNL1       -0.2710
     33 N         143.2746  138.8452  162.0856 N.am    1  UNL1       -0.2731
     34 C         143.9386  137.7650  161.2840 C.3     1  UNL1        0.1150
     35 C         144.0552  140.0557  162.5044 C.3     1  UNL1        0.1150
@<TRIPOS>BOND
     1    30    29    1
     2    30    28    1
     3    28     1    1
     4     1     2   ar
     5     2     3   ar
     6     3     4   ar
     7     4     5   ar
     8     5     6   ar
     9     6     7   ar
    10     7     8   ar
    11     8     9   ar
    12     9    11    1
    13    11    13    1
    14    13    14   ar
    15    14    15   ar
    16    15    16   ar
    17    16    20    1
    18    20    21    1
    19    21    22    1
    20    22    23   ar
    21    23    24   ar
    22    24    25   ar
    23    25    26   ar
    24    26    27   ar
    25    16    17   ar
    26    17    18    1
    27    17    19   ar
    28     9    10   ar
    29    30    31    1
    30    31    32    2
    31    31    33   am
    32    33    34    1
    33    33    35    1
    34    10     1   ar
    35    10     5   ar
    36    19    13   ar
    37    27    22   ar
    38    11    12    1
@<TRIPOS>MOLECULE
*****
 35 38 0 0 0
SMALL
GASTEIGER

@<TRIPOS>ATOM
      1 C         143.7498  141.2389  159.8889 C.ar    1  UNL1        0.1432
      2 C         143.8952  142.5018  159.0927 C.ar    1  UNL1        0.0371
      3 C         143.6852  142.4804  157.6076 C.ar    1  UNL1        0.0047
      4 C         143.3299  141.1962  156.9188 C.ar    1  UNL1        0.0195
      5 C         143.1845  139.9334  157.7150 C.ar    1  UNL1        0.0887
      6 N         142.8292  138.6491  157.0262 N.ar    1  UNL1       -0.2238
      7 C         142.6838  137.3862  157.8224 C.ar    1  UNL1        0.2000
      8 N         142.8938  137.4076  159.3075 N.ar    1  UNL1       -0.2088
      9 C         143.2491  138.6918  159.9963 C.ar    1  UNL1        0.1383
     10 C         143.3945  139.9547  159.2001 C.ar    1  UNL1        0.0833
     11 N         143.4591  138.7132  161.4814 N.pl3   1  UNL1       -0.2977
     12 H         144.3444  138.9356  161.8502 H       1  UNL1        0.1536
     13 C         142.3203  138.3955  162.4045 C.ar    1  UNL1        0.0504
     14 C         142.5807  138.1570  163.8624 C.ar    1  UNL1        0.0178
     15 C         141.4418  137.8394  164.7855 C.ar    1  UNL1        0.0391
     16 C         140.0426  137.7603  164.2508 C.ar    1  UNL1        0.1496
     17 C         139.7822  137.9988  162.7930 C.ar    1  UNL1        0.0928
     18 CL        138.3831  137.9197  162.2583 Cl      1  UNL1       -0.0790
     19 C         140.9210  138.3164  161.8699 C.ar    1  UNL1        0.0291
     20 O         138.9039  137.4426  165.1740 O.3     1  UNL1       -0.4681
     21 C         138.2790  138.5306  165.9962 C.3     1  UNL1        0.2508
     22 C         138.7022  139.9562  165.7996 C.ar    1  UNL1        0.1026
     23 C         139.7361  140.5628  166.7013 C.ar    1  UNL1        0.0185
     24 C         140.1592  141.9884  166.5048 C.ar    1  UNL1        0.0029
     25 C         139.5484  142.8074  165.4066 C.ar    1  UNL1        0.0207
     26 C         138.5145  142.2008  164.5048 C.ar    1  UNL1        0.0986
     27 N         138.0914  140.7752  164.7013 N.ar    1  UNL1       -0.2445
     28 O         143.9598  141.2603  161.3740 O.3     1  UNL1       -0.4698
     29 C         141.6382  142.0722  162.2112 C.3     1  UNL1        0.0574
     30 C         143.1348  142.1701  162.2351 C.3     1  UNL1        0.2413
     31 C         143.8064  143.1779  163.1202 C.2     1  UNL1        0.2660
     32 O         144.2224  144.5068  162.5625 O.2     1  UNL1       -0.2710
     33 N         144.0620  142.8568  164.5629 N.am    1  UNL1       -0.2731
     34 C         144.7336  143.8646  165.4480 C.3     1  UNL1        0.1150
     35 C         143.6461  141.5279  165.1206 C.3     1  UNL1        0.1150
@<TRIPOS>BOND
     1    30    29    1
     2    30    28    1
     3    28     1    1
     4     1     2   ar
     5     2     3   ar
     6     3     4   ar
     7     4     5   ar
     8     5     6   ar
     9     6     7   ar
    10     7     8   ar
    11     8     9   ar
    12     9    11    1
    13    11    13    1
    14    13    14   ar
    15    14    15   ar
    16    15    16   ar
    17    16    20    1
    18    20    21    1
    19    21    22    1
    20    22    23   ar
    21    23    24   ar
    22    24    25   ar
    23    25    26   ar
    24    26    27   ar
    25    16    17   ar
    26    17    18    1
    27    17    19   ar
    28     9    10   ar
    29    30    31    1
    30    31    32    2
    31    31    33   am
    32    33    34    1
    33    33    35    1
    34    10     1   ar
    35    10     5   ar
    36    19    13   ar
    37    27    22   ar
    38    11    12    1
@<TRIPOS>MOLECULE
*****
 35 38 0 0 0
SMALL
GASTEIGER

@<TRIPOS>ATOM
      1 C         140.6215  143.1265  164.0063 C.ar    1  UNL1        0.1432
      2 C         140.2411  144.3832  164.7314 C.ar    1  UNL1        0.0371
      3 C         138.7960  144.7605  164.8709 C.ar    1  UNL1        0.0047
      4 C         137.7314  143.8810  164.2852 C.ar    1  UNL1        0.0195
      5 C         138.1118  142.6243  163.5601 C.ar    1  UNL1        0.0887
      6 N         137.0472  141.7447  162.9743 N.ar    1  UNL1       -0.2238
      7 C         137.4276  140.4880  162.2492 C.ar    1  UNL1        0.2000
      8 N         138.8727  140.1108  162.1098 N.ar    1  UNL1       -0.2088
      9 C         139.9373  140.9902  162.6954 C.ar    1  UNL1        0.1383
     10 C         139.5569  142.2470  163.4206 C.ar    1  UNL1        0.0833
     11 N         141.3824  140.6130  162.5560 N.pl3   1  UNL1       -0.2977
     12 H         142.0210  140.8377  163.2708 H       1  UNL1        0.1536
     13 C         141.8545  139.8933  161.3275 C.ar    1  UNL1        0.0504
     14 C         142.5488  138.5697  161.4539 C.ar    1  UNL1        0.0178
     15 C         143.0209  137.8501  160.2254 C.ar    1  UNL1        0.0391
     16 C         142.7986  138.4540  158.8705 C.ar    1  UNL1        0.1496
     17 C         142.1043  139.7776  158.7440 C.ar    1  UNL1        0.0928
     18 CL        141.8820  140.3815  157.3891 Cl      1  UNL1       -0.0790
     19 C         141.6322  140.4972  159.9725 C.ar    1  UNL1        0.0291
     20 O         143.2707  137.7343  157.6420 O.3     1  UNL1       -0.4681
     21 C         142.3460  136.8019  156.9171 C.3     1  UNL1        0.2508
     22 C         142.7820  135.3992  156.6133 C.ar    1  UNL1        0.1026
     23 C         142.5179  134.8082  155.2601 C.ar    1  UNL1        0.0185
     24 C         142.9538  133.4055  154.9563 C.ar    1  UNL1        0.0029
     25 C         143.6539  132.5938  156.0056 C.ar    1  UNL1        0.0207
     26 C         143.9180  133.1848  157.3587 C.ar    1  UNL1        0.0986
     27 N         143.4820  134.5875  157.6625 N.ar    1  UNL1       -0.2445
     28 O         142.0666  142.7492  163.8668 O.3     1  UNL1       -0.4698
     29 C         143.7201  144.7456  164.0408 C.3     1  UNL1        0.0574
     30 C         143.0302  143.6981  163.2181 C.3     1  UNL1        0.2413
     31 C         143.3040  143.5996  161.7465 C.2     1  UNL1        0.2660
     32 O         142.5701  144.4879  160.7860 O.2     1  UNL1       -0.2710
     33 N         144.3116  142.6130  161.2355 N.am    1  UNL1       -0.2731
     34 C         144.5854  142.5145  159.7639 C.3     1  UNL1        0.1150
     35 C         145.0455  141.7248  162.1959 C.3     1  UNL1        0.1150
@<TRIPOS>BOND
     1    30    29    1
     2    30    28    1
     3    28     1    1
     4     1     2   ar
     5     2     3   ar
     6     3     4   ar
     7     4     5   ar
     8     5     6   ar
     9     6     7   ar
    10     7     8   ar
    11     8     9   ar
    12     9    11    1
    13    11    13    1
    14    13    14   ar
    15    14    15   ar
    16    15    16   ar
    17    16    20    1
    18    20    21    1
    19    21    22    1
    20    22    23   ar
    21    23    24   ar
    22    24    25   ar
    23    25    26   ar
    24    26    27   ar
    25    16    17   ar
    26    17    18    1
    27    17    19   ar
    28     9    10   ar
    29    30    31    1
    30    31    32    2
    31    31    33   am
    32    33    34    1
    33    33    35    1
    34    10     1   ar
    35    10     5   ar
    36    19    13   ar
    37    27    22   ar
    38    11    12    1
@<TRIPOS>MOLECULE
*****
 35 38 0 0 0
SMALL
GASTEIGER

@<TRIPOS>ATOM
      1 C         143.5325  143.2702  159.0337 C.ar    1  UNL1        0.1432
      2 C         144.5336  142.2242  158.6420 C.ar    1  UNL1        0.0371
      3 C         144.7813  141.9285  157.1924 C.ar    1  UNL1        0.0047
      4 C         144.0278  142.6788  156.1346 C.ar    1  UNL1        0.0195
      5 C         143.0266  143.7248  156.5262 C.ar    1  UNL1        0.0887
      6 N         142.2730  144.4752  155.4683 N.ar    1  UNL1       -0.2238
      7 C         141.2718  145.5212  155.8600 C.ar    1  UNL1        0.2000
      8 N         141.0242  145.8169  157.3096 N.ar    1  UNL1       -0.2088
      9 C         141.7777  145.0666  158.3675 C.ar    1  UNL1        0.1383
     10 C         142.7789  144.0205  157.9758 C.ar    1  UNL1        0.0833
     11 N         141.5300  145.3622  159.8170 N.pl3   1  UNL1       -0.2977
     12 H         142.0742  146.0385  160.2814 H       1  UNL1        0.1536
     13 C         140.4532  144.6275  160.5590 C.ar    1  UNL1        0.0504
     14 C         139.9990  145.1180  161.9018 C.ar    1  UNL1        0.0178
     15 C         138.9221  144.3832  162.6438 C.ar    1  UNL1        0.0391
     16 C         138.2995  143.1580  162.0430 C.ar    1  UNL1        0.1496
     17 C         138.7536  142.6675  160.7002 C.ar    1  UNL1        0.0928
     18 CL        138.1310  141.4422  160.0993 Cl      1  UNL1       -0.0790
     19 C         139.8305  143.4022  159.9582 C.ar    1  UNL1        0.0291
     20 O         137.2226  142.4233  162.7850 O.3     1  UNL1       -0.4681
     21 C         137.5126  141.8249  164.1295 C.3     1  UNL1        0.2508
     22 C         138.0033  140.4110  164.2312 C.ar    1  UNL1        0.1026
     23 C         138.2381  139.7936  165.5779 C.ar    1  UNL1        0.0185
     24 C         138.7288  138.3798  165.6796 C.ar    1  UNL1        0.0029
     25 C         138.9846  137.5834  164.4345 C.ar    1  UNL1        0.0207
     26 C         138.7498  138.2008  163.0878 C.ar    1  UNL1        0.0986
     27 N         138.2592  139.6146  162.9861 N.ar    1  UNL1       -0.2445
     28 O         143.2848  143.5658  160.4833 O.3     1  UNL1       -0.4698
     29 C         142.3031  141.3230  161.3527 C.3     1  UNL1        0.0574
     30 C         143.2831  142.4508  161.4865 C.3     1  UNL1        0.2413
     31 C         144.2614  142.4634  162.6236 C.2     1  UNL1        0.2660
     32 O         145.6064  141.8192  162.4629 O.2     1  UNL1       -0.2710
     33 N         143.8945  143.1201  163.9213 N.am    1  UNL1       -0.2731
     34 C         144.8728  143.1328  165.0584 C.3     1  UNL1        0.1150
     35 C         142.5495  143.7643  164.0820 C.3     1  UNL1        0.1150
@<TRIPOS>BOND
     1    30    29    1
     2    30    28    1
     3    28     1    1
     4     1     2   ar
     5     2     3   ar
     6     3     4   ar
     7     4     5   ar
     8     5     6   ar
     9     6     7   ar
    10     7     8   ar
    11     8     9   ar
    12     9    11    1
    13    11    13    1
    14    13    14   ar
    15    14    15   ar
    16    15    16   ar
    17    16    20    1
    18    20    21    1
    19    21    22    1
    20    22    23   ar
    21    23    24   ar
    22    24    25   ar
    23    25    26   ar
    24    26    27   ar
    25    16    17   ar
    26    17    18    1
    27    17    19   ar
    28     9    10   ar
    29    30    31    1
    30    31    32    2
    31    31    33   am
    32    33    34    1
    33    33    35    1
    34    10     1   ar
    35    10     5   ar
    36    19    13   ar
    37    27    22   ar
    38    11    12    1
@<TRIPOS>MOLECULE
*****
 35 38 0 0 0
SMALL
GASTEIGER

@<TRIPOS>ATOM
      1 C         138.1282  142.1624  163.0427 C.ar    1  UNL1        0.1432
      2 C         137.9164  142.6182  164.4560 C.ar    1  UNL1        0.0371
      3 C         138.2958  144.0122  164.8593 C.ar    1  UNL1        0.0047
      4 C         138.8871  144.9505  163.8494 C.ar    1  UNL1        0.0195
      5 C         139.0989  144.4947  162.4361 C.ar    1  UNL1        0.0887
      6 N         139.6902  145.4330  161.4261 N.ar    1  UNL1       -0.2238
      7 C         139.9020  144.9772  160.0128 C.ar    1  UNL1        0.2000
      8 N         139.5226  143.5832  159.6095 N.ar    1  UNL1       -0.2088
      9 C         138.9313  142.6449  160.6194 C.ar    1  UNL1        0.1383
     10 C         138.7195  143.1007  162.0328 C.ar    1  UNL1        0.0833
     11 N         138.5519  141.2509  160.2161 N.pl3   1  UNL1       -0.2977
     12 H         137.6157  140.9550  160.2886 H       1  UNL1        0.1536
     13 C         139.5988  140.3076  159.7023 C.ar    1  UNL1        0.0504
     14 C         139.2484  139.3008  158.6470 C.ar    1  UNL1        0.0178
     15 C         140.2954  138.3575  158.1332 C.ar    1  UNL1        0.0391
     16 C         141.6928  138.4209  158.6746 C.ar    1  UNL1        0.1496
     17 C         142.0433  139.4277  159.7298 C.ar    1  UNL1        0.0928
     18 CL        143.4407  139.4912  160.2713 Cl      1  UNL1       -0.0790
     19 C         140.9963  140.3710  160.2437 C.ar    1  UNL1        0.0291
     20 O         142.7397  137.4777  158.1607 O.3     1  UNL1       -0.4681
     21 C         142.6437  136.9394  156.7639 C.3     1  UNL1        0.2508
     22 C         142.5369  135.4606  156.5358 C.ar    1  UNL1        0.1026
     23 C         141.5859  134.9275  155.5055 C.ar    1  UNL1        0.0185
     24 C         141.4790  133.4489  155.2773 C.ar    1  UNL1        0.0029
     25 C         142.3232  132.5033  156.0793 C.ar    1  UNL1        0.0207
     26 C         143.2742  133.0364  157.1096 C.ar    1  UNL1        0.0986
     27 N         143.3811  134.5151  157.3378 N.ar    1  UNL1       -0.2445
     28 O         137.7488  140.7683  162.6394 O.3     1  UNL1       -0.4698
     29 C         138.3290  138.2389  162.5155 C.3     1  UNL1        0.0574
     30 C         138.5921  139.6063  163.0734 C.3     1  UNL1        0.2413
     31 C         139.6985  139.8115  164.0653 C.2     1  UNL1        0.2660
     32 O         141.0558  140.2444  163.5960 O.2     1  UNL1       -0.2710
     33 N         139.4475  139.5836  165.5265 N.am    1  UNL1       -0.2731
     34 C         140.5540  139.7888  166.5184 C.3     1  UNL1        0.1150
     35 C         138.0903  139.1507  165.9958 C.3     1  UNL1        0.1150
@<TRIPOS>BOND
     1    30    29    1
     2    30    28    1
     3    28     1    1
     4     1     2   ar
     5     2     3   ar
     6     3     4   ar
     7     4     5   ar
     8     5     6   ar
     9     6     7   ar
    10     7     8   ar
    11     8     9   ar
    12     9    11    1
    13    11    13    1
    14    13    14   ar
    15    14    15   ar
    16    15    16   ar
    17    16    20    1
    18    20    21    1
    19    21    22    1
    20    22    23   ar
    21    23    24   ar
    22    24    25   ar
    23    25    26   ar
    24    26    27   ar
    25    16    17   ar
    26    17    18    1
    27    17    19   ar
    28     9    10   ar
    29    30    31    1
    30    31    32    2
    31    31    33   am
    32    33    34    1
    33    33    35    1
    34    10     1   ar
    35    10     5   ar
    36    19    13   ar
    37    27    22   ar
    38    11    12    1
@<TRIPOS>MOLECULE
*****
 35 38 0 0 0
SMALL
GASTEIGER

@<TRIPOS>ATOM
      1 C         141.1340  140.7058  167.0855 C.ar    1  UNL1        0.1432
      2 C         141.5347  141.5289  168.2737 C.ar    1  UNL1        0.0371
      3 C         140.6866  141.5224  169.5110 C.ar    1  UNL1        0.0047
      4 C         139.4379  140.6929  169.5600 C.ar    1  UNL1        0.0195
      5 C         139.0372  139.8698  168.3717 C.ar    1  UNL1        0.0887
      6 N         137.7884  139.0402  168.4207 N.ar    1  UNL1       -0.2238
      7 C         137.3877  138.2171  167.2325 C.ar    1  UNL1        0.2000
      8 N         138.2357  138.2236  165.9952 N.ar    1  UNL1       -0.2088
      9 C         139.4844  139.0531  165.9462 C.ar    1  UNL1        0.1383
     10 C         139.8852  139.8763  167.1345 C.ar    1  UNL1        0.0833
     11 N         140.3325  139.0596  164.7090 N.pl3   1  UNL1       -0.2977
     12 H         141.2642  138.7442  164.7492 H       1  UNL1        0.1536
     13 C         139.7609  139.5466  163.4105 C.ar    1  UNL1        0.0504
     14 C         138.5691  140.4574  163.4103 C.ar    1  UNL1        0.0178
     15 C         137.9975  140.9444  162.1117 C.ar    1  UNL1        0.0391
     16 C         138.6179  140.5206  160.8134 C.ar    1  UNL1        0.1496
     17 C         139.8097  139.6099  160.8136 C.ar    1  UNL1        0.0928
     18 CL        140.4300  139.1862  159.5153 Cl      1  UNL1       -0.0790
     19 C         140.3813  139.1229  162.1121 C.ar    1  UNL1        0.0291
     20 O         138.0463  141.0076  159.5149 O.3     1  UNL1       -0.4681
     21 C         138.4697  142.3354  158.9602 C.3     1  UNL1        0.2508
     22 C         139.5344  143.1328  159.6534 C.ar    1  UNL1        0.1026
     23 C         140.9772  142.9249  159.2996 C.ar    1  UNL1        0.0185
     24 C         142.0419  143.7222  159.9928 C.ar    1  UNL1        0.0029
     25 C         141.6639  144.7275  161.0398 C.ar    1  UNL1        0.0207
     26 C         140.2211  144.9355  161.3937 C.ar    1  UNL1        0.0986
     27 N         139.1564  144.1382  160.7005 N.ar    1  UNL1       -0.2445
     28 O         141.9820  140.7123  165.8482 O.3     1  UNL1       -0.4698
     29 C         141.2220  142.9945  164.8664 C.3     1  UNL1        0.0574
     30 C         142.3116  142.0098  165.1717 C.3     1  UNL1        0.2413
     31 C         143.7309  142.3227  164.8003 C.2     1  UNL1        0.2660
     32 O         144.4461  143.4620  165.4641 O.2     1  UNL1       -0.2710
     33 N         144.4350  141.4963  163.7653 N.am    1  UNL1       -0.2731
     34 C         145.8543  141.8091  163.3940 C.3     1  UNL1        0.1150
     35 C         143.7198  140.3570  163.1016 C.3     1  UNL1        0.1150
@<TRIPOS>BOND
     1    30    29    1
     2    30    28    1
     3    28     1    1
     4     1     2   ar
     5     2     3   ar
     6     3     4   ar
     7     4     5   ar
     8     5     6   ar
     9     6     7   ar
    10     7     8   ar
    11     8     9   ar
    12     9    11    1
    13    11    13    1
    14    13    14   ar
    15    14    15   ar
    16    15    16   ar
    17    16    20    1
    18    20    21    1
    19    21    22    1
    20    22    23   ar
    21    23    24   ar
    22    24    25   ar
    23    25    26   ar
    24    26    27   ar
    25    16    17   ar
    26    17    18    1
    27    17    19   ar
    28     9    10   ar
    29    30    31    1
    30    31    32    2
    31    31    33   am
    32    33    34    1
    33    33    35    1
    34    10     1   ar
    35    10     5   ar
    36    19    13   ar
    37    27    22   ar
    38    11    12    1
