@<TRIPOS>MOLECULE
*****
 25 27 0 0 0
SMALL
GASTEIGER

@<TRIPOS>ATOM
      1 C         140.9823  142.1227  164.9906 C.ar    1  UNL1        0.1650
      2 N         140.4255  143.3078  164.2590 N.ar    1  UNL1       -0.2298
      3 C         141.3520  144.3412  163.6899 C.ar    1  UNL1        0.0761
      4 C         140.7951  145.5264  162.9583 C.3     1  UNL1        0.0532
      5 C         142.8354  144.1893  163.8525 C.ar    1  UNL1        0.1242
      6 CL        143.7619  145.2226  163.2834 Cl      1  UNL1       -0.0761
      7 C         143.3922  143.0042  164.5841 C.ar    1  UNL1        0.2382
      8 N         142.4657  141.9709  165.1531 N.ar    1  UNL1       -0.1918
      9 C         137.2763  137.9894  167.2668 C.3     1  UNL1        0.0310
     10 C         138.2028  139.0228  166.6977 C.ar    1  UNL1       -0.0218
     11 C         139.2339  139.6697  167.5742 C.ar    1  UNL1       -0.0042
     12 C         140.1604  140.7030  167.0052 C.ar    1  UNL1        0.0027
     13 C         140.0558  141.0894  165.5596 C.ar    1  UNL1        0.0359
     14 C         139.0247  140.4425  164.6831 C.ar    1  UNL1        0.0027
     15 C         138.0982  139.4092  165.2522 C.ar    1  UNL1       -0.0042
     16 O         144.8757  142.8523  164.7466 O.3     1  UNL1       -0.4596
     17 C         145.6249  141.8618  163.9054 C.3     1  UNL1        0.2086
     18 C         145.3146  140.3983  164.0150 C.3     1  UNL1        0.0647
     19 C         144.4970  139.7235  162.9539 C.3     1  UNL1        0.0759
     20 N         143.3016  138.9024  163.3371 N.3     1  UNL1       -0.2726
     21 C         143.0136  138.6263  164.7830 C.3     1  UNL1        0.0721
     22 C         141.8181  137.8052  165.1662 C.3     1  UNL1        0.0174
     23 C         140.9108  137.2602  164.1034 C.3     1  UNL1        0.0029
     24 C         141.1988  137.5362  162.6574 C.3     1  UNL1        0.0174
     25 C         142.3942  138.3573  162.2742 C.3     1  UNL1        0.0721
@<TRIPOS>BOND
     1     9    10    1
     2    10    11   ar
     3    11    12   ar
     4    12    13   ar
     5    13     1    1
     6     1     2   ar
     7     2     3   ar
     8     3     4    1
     9     3     5   ar
    10     5     6    1
    11     5     7   ar
    12     7    16    1
    13    16    17    1
    14    17    18    1
    15    18    19    1
    16    19    20    1
    17    20    21    1
    18    21    22    1
    19    22    23    1
    20    23    24    1
    21    24    25    1
    22     7     8   ar
    23    13    14   ar
    24    14    15   ar
    25    15    10   ar
    26     8     1   ar
    27    25    20    1
@<TRIPOS>MOLECULE
*****
 25 27 0 0 0
SMALL
GASTEIGER

@<TRIPOS>ATOM
      1 C         141.6420  142.7409  165.7599 C.ar    1  UNL1        0.1650
      2 N         142.7790  143.2770  164.9416 N.ar    1  UNL1       -0.2298
      3 C         142.5189  144.2996  163.8754 C.ar    1  UNL1        0.0761
      4 C         143.6560  144.8358  163.0571 C.3     1  UNL1        0.0532
      5 C         141.1218  144.7861  163.6276 C.ar    1  UNL1        0.1242
      6 CL        140.8617  145.8086  162.5615 Cl      1  UNL1       -0.0761
      7 C         139.9848  144.2499  164.4460 C.ar    1  UNL1        0.2382
      8 N         140.2449  143.2273  165.5121 N.ar    1  UNL1       -0.1918
      9 C         142.6824  138.6505  170.0245 C.3     1  UNL1        0.0310
     10 C         142.4223  139.6731  168.9583 C.ar    1  UNL1       -0.0218
     11 C         141.9229  141.0369  169.3331 C.ar    1  UNL1       -0.0042
     12 C         141.6628  142.0595  168.2670 C.ar    1  UNL1        0.0027
     13 C         141.9021  141.7183  166.8261 C.ar    1  UNL1        0.0359
     14 C         142.4014  140.3544  166.4513 C.ar    1  UNL1        0.0027
     15 C         142.6615  139.3318  167.5174 C.ar    1  UNL1       -0.0042
     16 O         138.5876  144.7363  164.1982 O.3     1  UNL1       -0.4596
     17 C         137.6828  143.9787  163.2723 C.3     1  UNL1        0.2086
     18 C         138.1359  142.6775  162.6792 C.3     1  UNL1        0.0647
     19 C         137.3497  141.4249  162.9299 C.3     1  UNL1        0.0759
     20 N         137.9841  140.2731  163.6516 N.3     1  UNL1       -0.2726
     21 C         138.3440  139.0248  162.9018 C.3     1  UNL1        0.0721
     22 C         138.9784  137.8729  163.6235 C.3     1  UNL1        0.0174
     23 C         139.2529  137.9694  165.0950 C.3     1  UNL1        0.0029
     24 C         138.8930  139.2178  165.8448 C.3     1  UNL1        0.0174
     25 C         138.2586  140.3696  165.1231 C.3     1  UNL1        0.0721
@<TRIPOS>BOND
     1     9    10    1
     2    10    11   ar
     3    11    12   ar
     4    12    13   ar
     5    13     1    1
     6     1     2   ar
     7     2     3   ar
     8     3     4    1
     9     3     5   ar
    10     5     6    1
    11     5     7   ar
    12     7    16    1
    13    16    17    1
    14    17    18    1
    15    18    19    1
    16    19    20    1
    17    20    21    1
    18    21    22    1
    19    22    23    1
    20    23    24    1
    21    24    25    1
    22     7     8   ar
    23    13    14   ar
    24    14    15   ar
    25    15    10   ar
    26     8     1   ar
    27    25    20    1
@<TRIPOS>MOLECULE
*****
 25 27 0 0 0
SMALL
GASTEIGER

@<TRIPOS>ATOM
      1 C         141.3603  141.4578  164.4934 C.ar    1  UNL1        0.1650
      2 N         142.4639  142.0908  165.2881 N.ar    1  UNL1       -0.2298
      3 C         143.4807  142.9550  164.6032 C.ar    1  UNL1        0.0761
      4 C         144.5843  143.5880  165.3979 C.3     1  UNL1        0.0532
      5 C         143.3940  143.1863  163.1237 C.ar    1  UNL1        0.1242
      6 CL        144.4109  144.0506  162.4388 Cl      1  UNL1       -0.0761
      7 C         142.2905  142.5533  162.3291 C.ar    1  UNL1        0.2382
      8 N         141.2736  141.6891  163.0140 N.ar    1  UNL1       -0.1918
      9 C         137.2929  138.0006  167.2329 C.3     1  UNL1        0.0310
     10 C         138.3098  138.8649  166.5481 C.ar    1  UNL1       -0.0218
     11 C         138.5346  138.7316  165.0710 C.ar    1  UNL1       -0.0042
     12 C         139.5515  139.5959  164.3862 C.ar    1  UNL1        0.0027
     13 C         140.3435  140.5935  165.1783 C.ar    1  UNL1        0.0359
     14 C         140.1186  140.7268  166.6553 C.ar    1  UNL1        0.0027
     15 C         139.1018  139.8625  167.3402 C.ar    1  UNL1       -0.0042
     16 O         142.2037  142.7846  160.8495 O.3     1  UNL1       -0.4596
     17 C         141.8915  144.1534  160.3214 C.3     1  UNL1        0.2086
     18 C         140.4768  144.6522  160.3203 C.3     1  UNL1        0.0647
     19 C         139.9066  145.2933  161.5506 C.3     1  UNL1        0.0759
     20 N         139.1630  144.4620  162.5535 N.3     1  UNL1       -0.2726
     21 C         139.2613  144.7843  164.0152 C.3     1  UNL1        0.0721
     22 C         138.5176  143.9529  165.0181 C.3     1  UNL1        0.0174
     23 C         137.6758  142.7992  164.5594 C.3     1  UNL1        0.0029
     24 C         137.5776  142.4770  163.0977 C.3     1  UNL1        0.0174
     25 C         138.3212  143.3083  162.0948 C.3     1  UNL1        0.0721
@<TRIPOS>BOND
     1     9    10    1
     2    10    11   ar
     3    11    12   ar
     4    12    13   ar
     5    13     1    1
     6     1     2   ar
     7     2     3   ar
     8     3     4    1
     9     3     5   ar
    10     5     6    1
    11     5     7   ar
    12     7    16    1
    13    16    17    1
    14    17    18    1
    15    18    19    1
    16    19    20    1
    17    20    21    1
    18    21    22    1
    19    22    23    1
    20    23    24    1
    21    24    25    1
    22     7     8   ar
    23    13    14   ar
    24    14    15   ar
    25    15    10   ar
    26     8     1   ar
    27    25    20    1
@<TRIPOS>MOLECULE
*****
 25 27 0 0 0
SMALL
GASTEIGER

@<TRIPOS>ATOM
      1 C         140.5505  142.4080  166.3080 C.ar    1  UNL1        0.1650
      2 N         141.7540  142.5341  167.1943 N.ar    1  UNL1       -0.2298
      3 C         141.9517  141.5761  168.3315 C.ar    1  UNL1        0.0761
      4 C         143.1553  141.7022  169.2178 C.3     1  UNL1        0.0532
      5 C         140.9458  140.4920  168.5823 C.ar    1  UNL1        0.1242
      6 CL        141.1435  139.5339  169.7194 Cl      1  UNL1       -0.0761
      7 C         139.7423  140.3659  167.6960 C.ar    1  UNL1        0.2382
      8 N         139.5447  141.3239  166.5588 N.ar    1  UNL1       -0.1918
      9 C         139.7599  146.2402  161.7594 C.3     1  UNL1        0.0310
     10 C         139.9576  145.2822  162.8966 C.ar    1  UNL1       -0.0218
     11 C         138.7699  144.6498  163.5596 C.ar    1  UNL1       -0.0042
     12 C         138.9676  143.6917  164.6967 C.ar    1  UNL1        0.0027
     13 C         140.3529  143.3661  165.1709 C.ar    1  UNL1        0.0359
     14 C         141.5405  143.9985  164.5079 C.ar    1  UNL1        0.0027
     15 C         141.3428  144.9565  163.3708 C.ar    1  UNL1       -0.0042
     16 O         138.7364  139.2818  167.9467 O.3     1  UNL1       -0.4596
     17 C         137.9070  138.7518  166.8149 C.3     1  UNL1        0.2086
     18 C         138.4223  137.6230  165.9719 C.3     1  UNL1        0.0647
     19 C         138.9321  137.8931  164.5873 C.3     1  UNL1        0.0759
     20 N         140.1782  138.7049  164.3920 N.3     1  UNL1       -0.2726
     21 C         141.3756  138.4620  165.2621 C.3     1  UNL1        0.0721
     22 C         142.6218  139.2739  165.0668 C.3     1  UNL1        0.0174
     23 C         142.6704  140.3286  164.0014 C.3     1  UNL1        0.0029
     24 C         141.4729  140.5716  163.1314 C.3     1  UNL1        0.0174
     25 C         140.2268  139.7598  163.3266 C.3     1  UNL1        0.0721
@<TRIPOS>BOND
     1     9    10    1
     2    10    11   ar
     3    11    12   ar
     4    12    13   ar
     5    13     1    1
     6     1     2   ar
     7     2     3   ar
     8     3     4    1
     9     3     5   ar
    10     5     6    1
    11     5     7   ar
    12     7    16    1
    13    16    17    1
    14    17    18    1
    15    18    19    1
    16    19    20    1
    17    20    21    1
    18    21    22    1
    19    22    23    1
    20    23    24    1
    21    24    25    1
    22     7     8   ar
    23    13    14   ar
    24    14    15   ar
    25    15    10   ar
    26     8     1   ar
    27    25    20    1
@<TRIPOS>MOLECULE
*****
 25 27 0 0 0
SMALL
GASTEIGER

@<TRIPOS>ATOM
      1 C         141.0507  142.2632  166.6459 C.ar    1  UNL1        0.1650
      2 N         140.4963  142.5325  168.0134 N.ar    1  UNL1       -0.2298
      3 C         140.7989  141.5938  169.1435 C.ar    1  UNL1        0.0761
      4 C         140.2445  141.8631  170.5111 C.3     1  UNL1        0.0532
      5 C         141.6559  140.3858  168.9062 C.ar    1  UNL1        0.1242
      6 CL        141.9585  139.4471  170.0363 Cl      1  UNL1       -0.0761
      7 C         142.2103  140.1166  167.5387 C.ar    1  UNL1        0.2382
      8 N         141.9077  141.0553  166.4085 N.ar    1  UNL1       -0.1918
      9 C         139.8403  146.0181  162.1252 C.3     1  UNL1        0.0310
     10 C         140.1429  145.0794  163.2554 C.ar    1  UNL1       -0.0218
     11 C         141.4615  144.3662  163.3054 C.ar    1  UNL1       -0.0042
     12 C         141.7641  143.4274  164.4355 C.ar    1  UNL1        0.0027
     13 C         140.7481  143.2019  165.5157 C.ar    1  UNL1        0.0359
     14 C         139.4295  143.9152  165.4657 C.ar    1  UNL1        0.0027
     15 C         139.1269  144.8539  164.3355 C.ar    1  UNL1       -0.0042
     16 O         143.0673  138.9086  167.3013 O.3     1  UNL1       -0.4596
     17 C         143.2988  138.4162  165.9035 C.3     1  UNL1        0.2086
     18 C         142.1720  137.7983  165.1297 C.3     1  UNL1        0.0647
     19 C         141.6911  138.4412  163.8627 C.3     1  UNL1        0.0759
     20 N         140.4653  139.3056  163.8787 N.3     1  UNL1       -0.2726
     21 C         139.4296  139.1186  164.9475 C.3     1  UNL1        0.0721
     22 C         138.2038  139.9831  164.9634 C.3     1  UNL1        0.0174
     23 C         138.0138  141.0345  163.9107 C.3     1  UNL1        0.0029
     24 C         139.0495  141.2216  162.8419 C.3     1  UNL1        0.0174
     25 C         140.2753  140.3571  162.8259 C.3     1  UNL1        0.0721
@<TRIPOS>BOND
     1     9    10    1
     2    10    11   ar
     3    11    12   ar
     4    12    13   ar
     5    13     1    1
     6     1     2   ar
     7     2     3   ar
     8     3     4    1
     9     3     5   ar
    10     5     6    1
    11     5     7   ar
    12     7    16    1
    13    16    17    1
    14    17    18    1
    15    18    19    1
    16    19    20    1
    17    20    21    1
    18    21    22    1
    19    22    23    1
    20    23    24    1
    21    24    25    1
    22     7     8   ar
    23    13    14   ar
    24    14    15   ar
    25    15    10   ar
    26     8     1   ar
    27    25    20    1
@<TRIPOS>MOLECULE
*****
 25 27 0 0 0
SMALL
GASTEIGER

@<TRIPOS>ATOM
      1 C         140.5830  141.2281  167.1923 C.ar    1  UNL1        0.1650
      2 N         140.2206  141.3502  168.6427 N.ar    1  UNL1       -0.2298
      3 C         140.9564  140.5422  169.6702 C.ar    1  UNL1        0.0761
      4 C         140.5940  140.6643  171.1207 C.3     1  UNL1        0.0532
      5 C         142.0545  139.6121  169.2473 C.ar    1  UNL1        0.1242
      6 CL        142.7903  138.8040  170.2747 Cl      1  UNL1       -0.0761
      7 C         142.4169  139.4900  167.7968 C.ar    1  UNL1        0.2382
      8 N         141.6811  140.2980  166.7694 N.ar    1  UNL1       -0.1918
      9 C         137.6398  144.4602  163.0824 C.3     1  UNL1        0.0310
     10 C         138.3756  143.6522  164.1099 C.ar    1  UNL1       -0.0218
     11 C         139.1354  144.3425  165.2035 C.ar    1  UNL1       -0.0042
     12 C         139.8712  143.5345  166.2310 C.ar    1  UNL1        0.0027
     13 C         139.8472  142.0362  166.1648 C.ar    1  UNL1        0.0359
     14 C         139.0873  141.3459  165.0712 C.ar    1  UNL1        0.0027
     15 C         138.3515  142.1539  164.0437 C.ar    1  UNL1       -0.0042
     16 O         143.5151  138.5598  167.3738 O.3     1  UNL1       -0.4596
     17 C         143.6973  138.2253  165.9230 C.3     1  UNL1        0.2086
     18 C         144.4928  139.1377  165.0371 C.3     1  UNL1        0.0647
     19 C         143.8420  139.7879  163.8524 C.3     1  UNL1        0.0759
     20 N         143.4852  141.2441  163.8981 N.3     1  UNL1       -0.2726
     21 C         142.3368  141.7608  163.0831 C.3     1  UNL1        0.0721
     22 C         141.9800  143.2171  163.1288 C.3     1  UNL1        0.0174
     23 C         142.7715  144.1566  163.9895 C.3     1  UNL1        0.0029
     24 C         143.9198  143.6398  164.8045 C.3     1  UNL1        0.0174
     25 C         144.2767  142.1837  164.7588 C.3     1  UNL1        0.0721
@<TRIPOS>BOND
     1     9    10    1
     2    10    11   ar
     3    11    12   ar
     4    12    13   ar
     5    13     1    1
     6     1     2   ar
     7     2     3   ar
     8     3     4    1
     9     3     5   ar
    10     5     6    1
    11     5     7   ar
    12     7    16    1
    13    16    17    1
    14    17    18    1
    15    18    19    1
    16    19    20    1
    17    20    21    1
    18    21    22    1
    19    22    23    1
    20    23    24    1
    21    24    25    1
    22     7     8   ar
    23    13    14   ar
    24    14    15   ar
    25    15    10   ar
    26     8     1   ar
    27    25    20    1
@<TRIPOS>MOLECULE
*****
 25 27 0 0 0
SMALL
GASTEIGER

@<TRIPOS>ATOM
      1 C         141.2419  142.7830  165.0474 C.ar    1  UNL1        0.1650
      2 N         139.9085  143.3052  164.6010 N.ar    1  UNL1       -0.2298
      3 C         139.8073  144.1382  163.3577 C.ar    1  UNL1        0.0761
      4 C         138.4738  144.6604  162.9113 C.3     1  UNL1        0.0532
      5 C         141.0394  144.4490  162.5608 C.ar    1  UNL1        0.1242
      6 CL        140.9382  145.2820  161.3175 Cl      1  UNL1       -0.0761
      7 C         142.3728  143.9268  163.0072 C.ar    1  UNL1        0.2382
      8 N         142.4740  143.0938  164.2505 N.ar    1  UNL1       -0.1918
      9 C         141.6467  139.4508  170.0206 C.3     1  UNL1        0.0310
     10 C         141.5455  140.2839  168.7773 C.ar    1  UNL1       -0.0218
     11 C         142.7270  141.0816  168.3108 C.ar    1  UNL1       -0.0042
     12 C         142.6258  141.9146  167.0675 C.ar    1  UNL1        0.0027
     13 C         141.3431  141.9499  166.2907 C.ar    1  UNL1        0.0359
     14 C         140.1616  141.1522  166.7573 C.ar    1  UNL1        0.0027
     15 C         140.2628  140.3192  168.0006 C.ar    1  UNL1       -0.0042
     16 O         143.6051  144.2376  162.2103 O.3     1  UNL1       -0.4596
     17 C         144.3345  143.1377  161.4975 C.3     1  UNL1        0.2086
     18 C         145.0040  142.0495  162.2835 C.3     1  UNL1        0.0647
     19 C         144.5729  140.6236  162.1080 C.3     1  UNL1        0.0759
     20 N         143.8852  139.9045  163.2304 N.3     1  UNL1       -0.2726
     21 C         142.4226  139.5863  163.1328 C.3     1  UNL1        0.0721
     22 C         141.7349  138.8672  164.2553 C.3     1  UNL1        0.0174
     23 C         142.5099  138.4661  165.4754 C.3     1  UNL1        0.0029
     24 C         143.9725  138.7842  165.5730 C.3     1  UNL1        0.0174
     25 C         144.6601  139.5034  164.4506 C.3     1  UNL1        0.0721
@<TRIPOS>BOND
     1     9    10    1
     2    10    11   ar
     3    11    12   ar
     4    12    13   ar
     5    13     1    1
     6     1     2   ar
     7     2     3   ar
     8     3     4    1
     9     3     5   ar
    10     5     6    1
    11     5     7   ar
    12     7    16    1
    13    16    17    1
    14    17    18    1
    15    18    19    1
    16    19    20    1
    17    20    21    1
    18    21    22    1
    19    22    23    1
    20    23    24    1
    21    24    25    1
    22     7     8   ar
    23    13    14   ar
    24    14    15   ar
    25    15    10   ar
    26     8     1   ar
    27    25    20    1
@<TRIPOS>MOLECULE
*****
 25 27 0 0 0
SMALL
GASTEIGER

@<TRIPOS>ATOM
      1 C         139.7559  139.9237  165.3008 C.ar    1  UNL1        0.1650
      2 N         139.9329  138.8626  164.2555 N.ar    1  UNL1       -0.2298
      3 C         139.1852  138.9554  162.9585 C.ar    1  UNL1        0.0761
      4 C         139.3623  137.8942  161.9131 C.3     1  UNL1        0.0532
      5 C         138.2604  140.1092  162.7067 C.ar    1  UNL1        0.1242
      6 CL        137.5127  140.2019  161.4097 Cl      1  UNL1       -0.0761
      7 C         138.0833  141.1703  163.7521 C.ar    1  UNL1        0.2382
      8 N         138.8311  141.0775  165.0491 N.ar    1  UNL1       -0.1918
      9 C         142.7468  139.5527  170.4889 C.3     1  UNL1        0.0310
     10 C         141.9991  139.6455  169.1919 C.ar    1  UNL1       -0.0218
     11 C         142.7069  139.3761  167.8972 C.ar    1  UNL1       -0.0042
     12 C         141.9592  139.4689  166.6001 C.ar    1  UNL1        0.0027
     13 C         140.5036  139.8310  166.5978 C.ar    1  UNL1        0.0359
     14 C         139.7957  140.1003  167.8925 C.ar    1  UNL1        0.0027
     15 C         140.5435  140.0076  169.1896 C.ar    1  UNL1       -0.0042
     16 O         137.1585  142.3242  163.5004 O.3     1  UNL1       -0.4596
     17 C         137.7151  143.6571  163.0962 C.3     1  UNL1        0.2086
     18 C         138.7024  144.3574  163.9822 C.3     1  UNL1        0.0647
     19 C         139.9775  144.8967  163.4048 C.3     1  UNL1        0.0759
     20 N         141.2988  144.4454  163.9528 N.3     1  UNL1       -0.2726
     21 C         141.3718  143.2296  164.8284 C.3     1  UNL1        0.0721
     22 C         142.6932  142.7783  165.3763 C.3     1  UNL1        0.0174
     23 C         143.9415  143.5426  165.0487 C.3     1  UNL1        0.0029
     24 C         143.8685  144.7583  164.1731 C.3     1  UNL1        0.0174
     25 C         142.5472  145.2097  163.6251 C.3     1  UNL1        0.0721
@<TRIPOS>BOND
     1     9    10    1
     2    10    11   ar
     3    11    12   ar
     4    12    13   ar
     5    13     1    1
     6     1     2   ar
     7     2     3   ar
     8     3     4    1
     9     3     5   ar
    10     5     6    1
    11     5     7   ar
    12     7    16    1
    13    16    17    1
    14    17    18    1
    15    18    19    1
    16    19    20    1
    17    20    21    1
    18    21    22    1
    19    22    23    1
    20    23    24    1
    21    24    25    1
    22     7     8   ar
    23    13    14   ar
    24    14    15   ar
    25    15    10   ar
    26     8     1   ar
    27    25    20    1
@<TRIPOS>MOLECULE
*****
 25 27 0 0 0
SMALL
GASTEIGER

@<TRIPOS>ATOM
      1 C         141.6742  142.5852  166.0019 C.ar    1  UNL1        0.1650
      2 N         141.0226  143.6012  165.1114 N.ar    1  UNL1       -0.2298
      3 C         141.8081  144.2444  164.0072 C.ar    1  UNL1        0.0761
      4 C         141.1565  145.2605  163.1167 C.3     1  UNL1        0.0532
      5 C         143.2452  143.8715  163.7934 C.ar    1  UNL1        0.1242
      6 CL        144.0307  144.5147  162.6892 Cl      1  UNL1       -0.0761
      7 C         143.8968  142.8555  164.6839 C.ar    1  UNL1        0.2382
      8 N         143.1113  142.2123  165.7881 N.ar    1  UNL1       -0.1918
      9 C         138.5322  140.0125  170.4188 C.3     1  UNL1        0.0310
     10 C         139.3177  140.6557  169.3146 C.ar    1  UNL1       -0.0218
     11 C         139.4605  139.9611  167.9928 C.ar    1  UNL1       -0.0042
     12 C         140.2460  140.6043  166.8886 C.ar    1  UNL1        0.0027
     13 C         140.8887  141.9420  167.1061 C.ar    1  UNL1        0.0359
     14 C         140.7459  142.6366  168.4279 C.ar    1  UNL1        0.0027
     15 C         139.9604  141.9934  169.5321 C.ar    1  UNL1       -0.0042
     16 O         145.3339  142.4825  164.4702 O.3     1  UNL1       -0.4596
     17 C         145.6819  141.1603  163.8533 C.3     1  UNL1        0.2086
     18 C         144.6219  140.3507  163.1668 C.3     1  UNL1        0.0647
     19 C         143.9813  139.1962  163.8786 C.3     1  UNL1        0.0759
     20 N         142.4888  139.0467  163.8732 N.3     1  UNL1       -0.2726
     21 C         141.8518  137.8571  164.5282 C.3     1  UNL1        0.0721
     22 C         140.3592  137.7076  164.5228 C.3     1  UNL1        0.0174
     23 C         139.5037  138.7478  163.8625 C.3     1  UNL1        0.0029
     24 C         140.1407  139.9375  163.2075 C.3     1  UNL1        0.0174
     25 C         141.6331  140.0870  163.2129 C.3     1  UNL1        0.0721
@<TRIPOS>BOND
     1     9    10    1
     2    10    11   ar
     3    11    12   ar
     4    12    13   ar
     5    13     1    1
     6     1     2   ar
     7     2     3   ar
     8     3     4    1
     9     3     5   ar
    10     5     6    1
    11     5     7   ar
    12     7    16    1
    13    16    17    1
    14    17    18    1
    15    18    19    1
    16    19    20    1
    17    20    21    1
    18    21    22    1
    19    22    23    1
    20    23    24    1
    21    24    25    1
    22     7     8   ar
    23    13    14   ar
    24    14    15   ar
    25    15    10   ar
    26     8     1   ar
    27    25    20    1
