@<TRIPOS>MOLECULE
*****
 41 44 0 0 0
SMALL
GASTEIGER

@<TRIPOS>ATOM
      1 C         141.7786  140.9402  162.5950 C.3     1  UNL1        0.0807
      2 C         141.5818  140.7206  164.0658 C.ar    1  UNL1        0.0375
      3 C         141.2661  141.8814  164.9619 C.ar    1  UNL1        0.0023
      4 C         141.0693  141.6617  166.4326 C.ar    1  UNL1        0.0183
      5 C         140.7537  142.8225  167.3287 C.ar    1  UNL1        0.0118
      6 C         140.5569  142.6028  168.7994 C.ar    1  UNL1        0.0685
      7 C         140.6758  141.2224  169.3740 C.ar    1  UNL1        0.0118
      8 C         140.9915  140.0616  168.4780 C.ar    1  UNL1        0.0199
      9 C         141.1883  140.2813  167.0073 C.ar    1  UNL1        0.0844
     10 N         141.5040  139.1205  166.1112 N.ar    1  UNL1       -0.2119
     11 C         141.7007  139.3401  164.6405 C.ar    1  UNL1        0.2211
     12 C         140.2412  143.7636  169.6955 C.1     1  UNL1        0.1004
     13 N         139.9256  144.9243  170.5916 N.1     1  UNL1       -0.1908
     14 O         142.0164  138.1793  163.7444 O.3     1  UNL1       -0.4563
     15 C         141.0247  137.0657  163.5822 C.3     1  UNL1        0.2542
     16 C         140.9562  138.5474  159.5376 C.ar    1  UNL1        0.1721
     17 C         139.4601  138.4824  159.6230 C.ar    1  UNL1        0.0400
     18 C         138.7368  139.2367  160.6991 C.ar    1  UNL1        0.0030
     19 C         139.5096  140.0559  161.6897 C.ar    1  UNL1       -0.0007
     20 C         141.0057  140.1210  161.6044 C.ar    1  UNL1        0.0213
     21 C         141.7291  139.3667  160.5283 C.ar    1  UNL1        0.1687
     22 C         142.1192  138.5020  157.2149 C.3     1  UNL1        0.2526
     23 O         141.6795  137.7932  158.4616 O.3     1  UNL1       -0.4684
     24 O         143.2252  139.4318  160.4430 O.3     1  UNL1       -0.4687
     25 C         144.0544  138.2744  160.9153 C.3     1  UNL1        0.2526
     26 C         142.7482  141.9792  162.1150 C.3     1  UNL1        0.1160
     27 O         143.8805  141.1999  162.7157 O.3     1  UNL1       -0.3820
     28 H         143.7967  140.2656  162.4689 H       1  UNL1        0.2107
     29 C         141.6160  142.7584  161.5144 C.ar    1  UNL1        0.0047
     30 C         140.5891  143.3951  162.4032 C.ar    1  UNL1        0.0127
     31 C         139.4568  144.1743  161.8025 C.ar    1  UNL1        0.0587
     32 C         138.4299  144.8111  162.6914 C.3     1  UNL1        0.0521
     33 N         139.3514  144.3168  160.3131 N.ar    1  UNL1       -0.2540
     34 C         140.3783  143.6801  159.4243 C.ar    1  UNL1        0.0587
     35 C         139.9744  144.0162  158.0192 C.3     1  UNL1        0.0521
     36 C         141.5106  142.9009  160.0249 C.ar    1  UNL1        0.0127
     37 C         143.7179  143.0181  161.6350 C.3     1  UNL1        0.0491
     38 C         144.6202  143.7106  162.6130 C.3     1  UNL1        0.0750
     39 N         144.0746  144.1954  163.9234 N.3     1  UNL1       -0.2702
     40 C         143.0910  145.3275  163.9536 C.3     1  UNL1        0.0897
     41 C         144.5127  143.5481  165.2037 C.3     1  UNL1        0.0897
@<TRIPOS>BOND
     1    22    23    1
     2    23    16    1
     3    16    17   ar
     4    17    18   ar
     5    18    19   ar
     6    19    20   ar
     7    20     1    1
     8     1     2    1
     9     2     3   ar
    10     3     4   ar
    11     4     5   ar
    12     5     6   ar
    13     6    12    1
    14    12    13    3
    15     6     7   ar
    16     7     8   ar
    17     8     9   ar
    18     9    10   ar
    19    10    11   ar
    20    11    14    1
    21    14    15    1
    22     1    26    1
    23    26    27    1
    24    26    37    1
    25    37    38    1
    26    38    39    1
    27    39    40    1
    28    39    41    1
    29    26    29    1
    30    29    30   ar
    31    30    31   ar
    32    31    32    1
    33    31    33   ar
    34    33    34   ar
    35    34    35    1
    36    34    36   ar
    37    20    21   ar
    38    21    24    1
    39    24    25    1
    40    21    16   ar
    41    11     2   ar
    42    36    29   ar
    43     9     4   ar
    44    27    28    1
@<TRIPOS>MOLECULE
*****
 41 44 0 0 0
SMALL
GASTEIGER

@<TRIPOS>ATOM
      1 C         141.4840  141.7654  164.4624 C.3     1  UNL1        0.0807
      2 C         142.3223  142.0336  163.2478 C.ar    1  UNL1        0.0375
      3 C         142.1241  141.2179  162.0046 C.ar    1  UNL1        0.0023
      4 C         142.9624  141.4862  160.7900 C.ar    1  UNL1        0.0183
      5 C         142.7642  140.6705  159.5468 C.ar    1  UNL1        0.0118
      6 C         143.6025  140.9388  158.3323 C.ar    1  UNL1        0.0685
      7 C         144.6391  142.0226  158.3608 C.ar    1  UNL1        0.0118
      8 C         144.8373  142.8382  159.6040 C.ar    1  UNL1        0.0199
      9 C         143.9990  142.5700  160.8185 C.ar    1  UNL1        0.0844
     10 N         144.1972  143.3856  162.0618 N.ar    1  UNL1       -0.2119
     11 C         143.3589  143.1174  163.2763 C.ar    1  UNL1        0.2211
     12 C         143.4043  140.1231  157.0890 C.1     1  UNL1        0.1004
     13 N         143.2061  139.3075  155.8459 N.1     1  UNL1       -0.1908
     14 O         143.5571  143.9330  164.5195 O.3     1  UNL1       -0.4563
     15 C         144.6763  143.6034  165.4623 C.3     1  UNL1        0.2542
     16 C         142.5879  140.4952  168.0566 C.ar    1  UNL1        0.1721
     17 C         143.0519  139.1052  167.7359 C.ar    1  UNL1        0.0400
     18 C         142.9932  138.6020  166.3240 C.ar    1  UNL1        0.0030
     19 C         142.4706  139.4887  165.2328 C.ar    1  UNL1       -0.0007
     20 C         142.0066  140.8787  165.5535 C.ar    1  UNL1        0.0213
     21 C         142.0653  141.3819  166.9654 C.ar    1  UNL1        0.1687
     22 C         143.6696  142.0242  169.8570 C.3     1  UNL1        0.2526
     23 O         142.6466  140.9984  169.4684 O.3     1  UNL1       -0.4684
     24 O         141.6013  142.7718  167.2861 O.3     1  UNL1       -0.4687
     25 C         140.4011  142.9785  168.1618 C.3     1  UNL1        0.2526
     26 C         140.1231  142.3839  164.5859 C.3     1  UNL1        0.1160
     27 O         140.7466  143.7474  164.6286 O.3     1  UNL1       -0.3820
     28 H         141.4034  143.8250  163.9189 H       1  UNL1        0.2107
     29 C         139.4995  141.0203  164.5432 C.ar    1  UNL1        0.0047
     30 C         138.9135  140.4243  165.7887 C.ar    1  UNL1        0.0127
     31 C         138.2899  139.0607  165.7460 C.ar    1  UNL1        0.0587
     32 C         137.7039  138.4647  166.9916 C.3     1  UNL1        0.0521
     33 N         138.2523  138.2932  164.4578 N.ar    1  UNL1       -0.2540
     34 C         138.8383  138.8892  163.2123 C.ar    1  UNL1        0.0587
     35 C         138.6328  137.8707  162.1304 C.3     1  UNL1        0.0521
     36 C         139.4618  140.2528  163.2550 C.ar    1  UNL1        0.0127
     37 C         138.7621  143.0024  164.7093 C.3     1  UNL1        0.0491
     38 C         138.4453  144.2709  163.9741 C.3     1  UNL1        0.0750
     39 N         138.7410  144.3817  162.5077 N.3     1  UNL1       -0.2702
     40 C         138.3337  143.2797  161.5751 C.3     1  UNL1        0.0897
     41 C         139.4440  145.5945  161.9738 C.3     1  UNL1        0.0897
@<TRIPOS>BOND
     1    22    23    1
     2    23    16    1
     3    16    17   ar
     4    17    18   ar
     5    18    19   ar
     6    19    20   ar
     7    20     1    1
     8     1     2    1
     9     2     3   ar
    10     3     4   ar
    11     4     5   ar
    12     5     6   ar
    13     6    12    1
    14    12    13    3
    15     6     7   ar
    16     7     8   ar
    17     8     9   ar
    18     9    10   ar
    19    10    11   ar
    20    11    14    1
    21    14    15    1
    22     1    26    1
    23    26    27    1
    24    26    37    1
    25    37    38    1
    26    38    39    1
    27    39    40    1
    28    39    41    1
    29    26    29    1
    30    29    30   ar
    31    30    31   ar
    32    31    32    1
    33    31    33   ar
    34    33    34   ar
    35    34    35    1
    36    34    36   ar
    37    20    21   ar
    38    21    24    1
    39    24    25    1
    40    21    16   ar
    41    11     2   ar
    42    36    29   ar
    43     9     4   ar
    44    27    28    1
@<TRIPOS>MOLECULE
*****
 41 44 0 0 0
SMALL
GASTEIGER

@<TRIPOS>ATOM
      1 C         141.5503  142.3434  162.5596 C.3     1  UNL1        0.0807
      2 C         141.9932  142.3032  163.9922 C.ar    1  UNL1        0.0375
      3 C         141.1362  141.6313  165.0236 C.ar    1  UNL1        0.0023
      4 C         141.5791  141.5910  166.4562 C.ar    1  UNL1        0.0183
      5 C         140.7221  140.9191  167.4877 C.ar    1  UNL1        0.0118
      6 C         141.1650  140.8789  168.9202 C.ar    1  UNL1        0.0685
      7 C         142.4651  141.5107  169.3212 C.ar    1  UNL1        0.0118
      8 C         143.3221  142.1826  168.2898 C.ar    1  UNL1        0.0199
      9 C         142.8791  142.2228  166.8573 C.ar    1  UNL1        0.0844
     10 N         143.7362  142.8948  165.8258 N.ar    1  UNL1       -0.2119
     11 C         143.2933  142.9350  164.3932 C.ar    1  UNL1        0.2211
     12 C         140.3080  140.2070  169.9517 C.1     1  UNL1        0.1004
     13 N         139.4510  139.5350  170.9832 N.1     1  UNL1       -0.1908
     14 O         144.1503  143.6069  163.3617 O.3     1  UNL1       -0.4563
     15 C         144.0607  145.0911  163.1635 C.3     1  UNL1        0.2542
     16 C         143.7863  142.0512  159.2939 C.ar    1  UNL1        0.1721
     17 C         144.1730  140.6027  159.3438 C.ar    1  UNL1        0.0400
     18 C         143.6854  139.7345  160.4657 C.ar    1  UNL1        0.0030
     19 C         142.8112  140.3148  161.5376 C.ar    1  UNL1       -0.0007
     20 C         142.4245  141.7632  161.4877 C.ar    1  UNL1        0.0213
     21 C         142.9120  142.6314  160.3659 C.ar    1  UNL1        0.1687
     22 C         143.7852  142.6828  156.7738 C.3     1  UNL1        0.2526
     23 O         144.2738  142.9194  158.1721 O.3     1  UNL1       -0.4684
     24 O         142.5253  144.0798  160.3160 O.3     1  UNL1       -0.4687
     25 C         141.5512  144.5608  159.2816 C.3     1  UNL1        0.2526
     26 C         140.2331  142.9639  162.1990 C.3     1  UNL1        0.1160
     27 O         140.7056  144.2810  162.7394 O.3     1  UNL1       -0.3820
     28 H         141.5952  144.4687  162.4014 H       1  UNL1        0.2107
     29 C         139.7606  141.6468  161.6586 C.ar    1  UNL1        0.0047
     30 C         139.5697  141.4671  160.1817 C.ar    1  UNL1        0.0127
     31 C         139.0973  140.1500  159.6413 C.ar    1  UNL1        0.0587
     32 C         138.9064  139.9703  158.1643 C.3     1  UNL1        0.0521
     33 N         138.8157  139.0126  160.5778 N.ar    1  UNL1       -0.2540
     34 C         139.0066  139.1923  162.0546 C.ar    1  UNL1        0.0587
     35 C         138.6407  137.8796  162.6815 C.3     1  UNL1        0.0521
     36 C         139.4790  140.5094  162.5950 C.ar    1  UNL1        0.0127
     37 C         138.9159  143.5844  161.8384 C.3     1  UNL1        0.0491
     38 C         138.1778  144.4158  162.8454 C.3     1  UNL1        0.0750
     39 N         138.1147  143.9771  164.2784 N.3     1  UNL1       -0.2702
     40 C         137.5813  142.6185  164.6242 C.3     1  UNL1        0.0897
     41 C         138.5851  144.8972  165.3658 C.3     1  UNL1        0.0897
@<TRIPOS>BOND
     1    22    23    1
     2    23    16    1
     3    16    17   ar
     4    17    18   ar
     5    18    19   ar
     6    19    20   ar
     7    20     1    1
     8     1     2    1
     9     2     3   ar
    10     3     4   ar
    11     4     5   ar
    12     5     6   ar
    13     6    12    1
    14    12    13    3
    15     6     7   ar
    16     7     8   ar
    17     8     9   ar
    18     9    10   ar
    19    10    11   ar
    20    11    14    1
    21    14    15    1
    22     1    26    1
    23    26    27    1
    24    26    37    1
    25    37    38    1
    26    38    39    1
    27    39    40    1
    28    39    41    1
    29    26    29    1
    30    29    30   ar
    31    30    31   ar
    32    31    32    1
    33    31    33   ar
    34    33    34   ar
    35    34    35    1
    36    34    36   ar
    37    20    21   ar
    38    21    24    1
    39    24    25    1
    40    21    16   ar
    41    11     2   ar
    42    36    29   ar
    43     9     4   ar
    44    27    28    1
@<TRIPOS>MOLECULE
*****
 41 44 0 0 0
SMALL
GASTEIGER

@<TRIPOS>ATOM
      1 C         140.6870  140.7992  162.8493 C.3     1  UNL1        0.0807
      2 C         140.1238  140.4889  164.2045 C.ar    1  UNL1        0.0375
      3 C         140.7693  141.0577  165.4332 C.ar    1  UNL1        0.0023
      4 C         140.2060  140.7474  166.7884 C.ar    1  UNL1        0.0183
      5 C         140.8516  141.3163  168.0171 C.ar    1  UNL1        0.0118
      6 C         140.2883  141.0060  169.3722 C.ar    1  UNL1        0.0685
      7 C         139.0796  140.1268  169.4987 C.ar    1  UNL1        0.0118
      8 C         138.4340  139.5580  168.2700 C.ar    1  UNL1        0.0199
      9 C         138.9973  139.8683  166.9149 C.ar    1  UNL1        0.0844
     10 N         138.3518  139.2994  165.6861 N.ar    1  UNL1       -0.2119
     11 C         138.9150  139.6098  164.3310 C.ar    1  UNL1        0.2211
     12 C         140.9338  141.5748  170.6010 C.1     1  UNL1        0.1004
     13 N         141.5793  142.1437  171.8297 N.1     1  UNL1       -0.1908
     14 O         138.2695  139.0409  163.1022 O.3     1  UNL1       -0.4563
     15 C         138.5484  137.6241  162.6960 C.3     1  UNL1        0.2542
     16 C         141.9363  138.3215  160.0120 C.ar    1  UNL1        0.1721
     17 C         143.1400  137.7178  160.6728 C.ar    1  UNL1        0.0400
     18 C         143.5261  138.1413  162.0590 C.ar    1  UNL1        0.0030
     19 C         142.7084  139.1684  162.7845 C.ar    1  UNL1       -0.0007
     20 C         141.5047  139.7721  162.1238 C.ar    1  UNL1        0.0213
     21 C         141.1186  139.3487  160.7376 C.ar    1  UNL1        0.1687
     22 C         142.6118  137.6290  157.6009 C.3     1  UNL1        0.2526
     23 O         141.5502  137.8980  158.6258 O.3     1  UNL1       -0.4684
     24 O         139.9148  139.9523  160.0769 O.3     1  UNL1       -0.4687
     25 C         140.0827  140.8400  158.8794 C.3     1  UNL1        0.2526
     26 C         140.4325  142.1367  162.2196 C.3     1  UNL1        0.1160
     27 O         138.9756  141.8014  162.0964 O.3     1  UNL1       -0.3820
     28 H         138.6552  141.4382  162.9369 H       1  UNL1        0.2107
     29 C         141.8894  142.4719  162.3429 C.ar    1  UNL1        0.0047
     30 C         142.7668  142.4619  161.1263 C.ar    1  UNL1        0.0127
     31 C         144.2236  142.7971  161.2495 C.ar    1  UNL1        0.0587
     32 C         145.1010  142.7872  160.0329 C.3     1  UNL1        0.0521
     33 N         144.8031  143.1423  162.5893 N.ar    1  UNL1       -0.2540
     34 C         143.9257  143.1523  163.8058 C.ar    1  UNL1        0.0587
     35 C         144.8141  143.5326  164.9531 C.3     1  UNL1        0.0521
     36 C         142.4688  142.8170  163.6826 C.ar    1  UNL1        0.0127
     37 C         140.1780  143.4741  161.5900 C.3     1  UNL1        0.0491
     38 C         139.8645  144.6613  162.4517 C.3     1  UNL1        0.0750
     39 N         138.9476  144.5119  163.6294 N.3     1  UNL1       -0.2702
     40 C         139.5038  144.5461  165.0220 C.3     1  UNL1        0.0897
     41 C         137.4744  144.3284  163.4144 C.3     1  UNL1        0.0897
@<TRIPOS>BOND
     1    22    23    1
     2    23    16    1
     3    16    17   ar
     4    17    18   ar
     5    18    19   ar
     6    19    20   ar
     7    20     1    1
     8     1     2    1
     9     2     3   ar
    10     3     4   ar
    11     4     5   ar
    12     5     6   ar
    13     6    12    1
    14    12    13    3
    15     6     7   ar
    16     7     8   ar
    17     8     9   ar
    18     9    10   ar
    19    10    11   ar
    20    11    14    1
    21    14    15    1
    22     1    26    1
    23    26    27    1
    24    26    37    1
    25    37    38    1
    26    38    39    1
    27    39    40    1
    28    39    41    1
    29    26    29    1
    30    29    30   ar
    31    30    31   ar
    32    31    32    1
    33    31    33   ar
    34    33    34   ar
    35    34    35    1
    36    34    36   ar
    37    20    21   ar
    38    21    24    1
    39    24    25    1
    40    21    16   ar
    41    11     2   ar
    42    36    29   ar
    43     9     4   ar
    44    27    28    1
@<TRIPOS>MOLECULE
*****
 41 44 0 0 0
SMALL
GASTEIGER

@<TRIPOS>ATOM
      1 C         139.4823  140.8319  164.4774 C.3     1  UNL1        0.0807
      2 C         139.9267  140.7531  165.9080 C.ar    1  UNL1        0.0375
      3 C         141.1503  141.4964  166.3552 C.ar    1  UNL1        0.0023
      4 C         141.5947  141.4176  167.7858 C.ar    1  UNL1        0.0183
      5 C         142.8184  142.1609  168.2330 C.ar    1  UNL1        0.0118
      6 C         143.2627  142.0821  169.6635 C.ar    1  UNL1        0.0685
      7 C         142.4834  141.2599  170.6467 C.ar    1  UNL1        0.0118
      8 C         141.2597  140.5166  170.1995 C.ar    1  UNL1        0.0199
      9 C         140.8154  140.5954  168.7690 C.ar    1  UNL1        0.0844
     10 N         139.5917  139.8520  168.3216 N.ar    1  UNL1       -0.2119
     11 C         139.1474  139.9309  166.8912 C.ar    1  UNL1        0.2211
     12 C         144.4864  142.8255  170.1109 C.1     1  UNL1        0.1004
     13 N         145.7100  143.5689  170.5582 N.1     1  UNL1       -0.1908
     14 O         137.9237  139.1875  166.4438 O.3     1  UNL1       -0.4563
     15 C         137.8386  137.7017  166.6310 C.3     1  UNL1        0.2542
     16 C         140.0374  144.2539  162.5457 C.ar    1  UNL1        0.1721
     17 C         138.6554  144.8349  162.5954 C.ar    1  UNL1        0.0400
     18 C         137.5490  144.0815  163.2725 C.ar    1  UNL1        0.0030
     19 C         137.8247  142.7472  163.8998 C.ar    1  UNL1       -0.0007
     20 C         139.2067  142.1662  163.8501 C.ar    1  UNL1        0.0213
     21 C         140.3130  142.9195  163.1731 C.ar    1  UNL1        0.1687
     22 C         141.3881  144.8221  160.4004 C.3     1  UNL1        0.2526
     23 O         141.1438  145.0072  161.8687 O.3     1  UNL1       -0.4684
     24 O         141.6951  142.3385  163.1234 O.3     1  UNL1       -0.4687
     25 C         142.8210  143.0188  163.8442 C.3     1  UNL1        0.2526
     26 C         139.3136  139.5763  163.6742 C.3     1  UNL1        0.1160
     27 O         137.8293  139.7914  163.6498 O.3     1  UNL1       -0.3820
     28 H         137.6399  140.7125  163.4118 H       1  UNL1        0.2107
     29 C         140.7979  139.3612  163.6987 C.ar    1  UNL1        0.0047
     30 C         141.4632  138.8639  164.9477 C.ar    1  UNL1        0.0127
     31 C         142.9475  138.6488  164.9721 C.ar    1  UNL1        0.0587
     32 C         143.6128  138.1516  166.2212 C.3     1  UNL1        0.0521
     33 N         143.7665  138.9310  163.7476 N.ar    1  UNL1       -0.2540
     34 C         143.1012  139.4283  162.4986 C.ar    1  UNL1        0.0587
     35 C         144.1962  139.6025  161.4882 C.3     1  UNL1        0.0521
     36 C         141.6169  139.6434  162.4741 C.ar    1  UNL1        0.0127
     37 C         139.1449  138.3207  162.8711 C.3     1  UNL1        0.0491
     38 C         138.1682  138.2839  161.7332 C.3     1  UNL1        0.0750
     39 N         138.4775  139.0064  160.4556 N.3     1  UNL1       -0.2702
     40 C         139.6035  138.5377  159.5825 C.3     1  UNL1        0.0897
     41 C         137.6608  140.1979  160.0511 C.3     1  UNL1        0.0897
@<TRIPOS>BOND
     1    22    23    1
     2    23    16    1
     3    16    17   ar
     4    17    18   ar
     5    18    19   ar
     6    19    20   ar
     7    20     1    1
     8     1     2    1
     9     2     3   ar
    10     3     4   ar
    11     4     5   ar
    12     5     6   ar
    13     6    12    1
    14    12    13    3
    15     6     7   ar
    16     7     8   ar
    17     8     9   ar
    18     9    10   ar
    19    10    11   ar
    20    11    14    1
    21    14    15    1
    22     1    26    1
    23    26    27    1
    24    26    37    1
    25    37    38    1
    26    38    39    1
    27    39    40    1
    28    39    41    1
    29    26    29    1
    30    29    30   ar
    31    30    31   ar
    32    31    32    1
    33    31    33   ar
    34    33    34   ar
    35    34    35    1
    36    34    36   ar
    37    20    21   ar
    38    21    24    1
    39    24    25    1
    40    21    16   ar
    41    11     2   ar
    42    36    29   ar
    43     9     4   ar
    44    27    28    1
@<TRIPOS>MOLECULE
*****
 41 44 0 0 0
SMALL
GASTEIGER

@<TRIPOS>ATOM
      1 C         141.8484  141.1490  164.3612 C.3     1  UNL1        0.0807
      2 C         142.1999  140.1980  163.2556 C.ar    1  UNL1        0.0375
      3 C         141.4966  140.2914  161.9341 C.ar    1  UNL1        0.0023
      4 C         141.8481  139.3404  160.8285 C.ar    1  UNL1        0.0183
      5 C         141.1448  139.4338  159.5070 C.ar    1  UNL1        0.0118
      6 C         141.4963  138.4829  158.4015 C.ar    1  UNL1        0.0685
      7 C         142.5513  137.4386  158.6176 C.ar    1  UNL1        0.0118
      8 C         143.2546  137.3453  159.9391 C.ar    1  UNL1        0.0199
      9 C         142.9030  138.2962  161.0446 C.ar    1  UNL1        0.0844
     10 N         143.6064  138.2029  162.3662 N.ar    1  UNL1       -0.2119
     11 C         143.2548  139.1538  163.4717 C.ar    1  UNL1        0.2211
     12 C         140.7930  138.5762  157.0799 C.1     1  UNL1        0.1004
     13 N         140.0896  138.6694  155.7583 N.1     1  UNL1       -0.1908
     14 O         143.9582  139.0605  164.7933 O.3     1  UNL1       -0.4563
     15 C         143.4863  138.0808  165.8266 C.3     1  UNL1        0.2542
     16 C         140.6656  140.2612  168.0440 C.ar    1  UNL1        0.1721
     17 C         139.2733  139.7677  167.7833 C.ar    1  UNL1        0.0400
     18 C         138.7393  139.7347  166.3819 C.ar    1  UNL1        0.0030
     19 C         139.5977  140.1951  165.2412 C.ar    1  UNL1       -0.0007
     20 C         140.9900  140.6886  165.5019 C.ar    1  UNL1        0.0213
     21 C         141.5240  140.7216  166.9032 C.ar    1  UNL1        0.1687
     22 C         142.1717  139.2474  169.9023 C.3     1  UNL1        0.2526
     23 O         141.1995  140.2943  169.4453 O.3     1  UNL1       -0.4684
     24 O         142.9163  141.2151  167.1638 O.3     1  UNL1       -0.4687
     25 C         143.1313  142.4656  167.9640 C.3     1  UNL1        0.2526
     26 C         142.3552  142.5603  164.3260 C.3     1  UNL1        0.1160
     27 O         143.7619  142.0587  164.4661 O.3     1  UNL1       -0.3820
     28 H         143.9084  141.3291  163.8439 H       1  UNL1        0.2107
     29 C         140.9485  143.0620  164.1859 C.ar    1  UNL1        0.0047
     30 C         140.1540  142.7333  162.9568 C.ar    1  UNL1        0.0127
     31 C         138.7473  143.2350  162.8167 C.ar    1  UNL1        0.0587
     32 C         137.9527  142.9062  161.5876 C.3     1  UNL1        0.0521
     33 N         138.1352  144.0654  163.9056 N.ar    1  UNL1       -0.2540
     34 C         138.9298  144.3940  165.1347 C.ar    1  UNL1        0.0587
     35 C         138.0283  145.2240  166.0000 C.3     1  UNL1        0.0521
     36 C         140.3365  143.8924  165.2748 C.ar    1  UNL1        0.0127
     37 C         142.8621  143.9717  164.2908 C.3     1  UNL1        0.0491
     38 C         143.6856  144.4441  163.1294 C.3     1  UNL1        0.0750
     39 N         143.5661  143.7623  161.7987 N.3     1  UNL1       -0.2702
     40 C         144.5998  142.7625  161.3726 C.3     1  UNL1        0.0897
     41 C         142.4127  144.0805  160.8939 C.3     1  UNL1        0.0897
@<TRIPOS>BOND
     1    22    23    1
     2    23    16    1
     3    16    17   ar
     4    17    18   ar
     5    18    19   ar
     6    19    20   ar
     7    20     1    1
     8     1     2    1
     9     2     3   ar
    10     3     4   ar
    11     4     5   ar
    12     5     6   ar
    13     6    12    1
    14    12    13    3
    15     6     7   ar
    16     7     8   ar
    17     8     9   ar
    18     9    10   ar
    19    10    11   ar
    20    11    14    1
    21    14    15    1
    22     1    26    1
    23    26    27    1
    24    26    37    1
    25    37    38    1
    26    38    39    1
    27    39    40    1
    28    39    41    1
    29    26    29    1
    30    29    30   ar
    31    30    31   ar
    32    31    32    1
    33    31    33   ar
    34    33    34   ar
    35    34    35    1
    36    34    36   ar
    37    20    21   ar
    38    21    24    1
    39    24    25    1
    40    21    16   ar
    41    11     2   ar
    42    36    29   ar
    43     9     4   ar
    44    27    28    1
@<TRIPOS>MOLECULE
*****
 41 44 0 0 0
SMALL
GASTEIGER

@<TRIPOS>ATOM
      1 C         141.5796  142.4573  162.5147 C.3     1  UNL1        0.0807
      2 C         141.8815  142.1701  163.9557 C.ar    1  UNL1        0.0375
      3 C         140.7834  141.7336  164.8795 C.ar    1  UNL1        0.0023
      4 C         141.0854  141.4463  166.3205 C.ar    1  UNL1        0.0183
      5 C         139.9872  141.0098  167.2444 C.ar    1  UNL1        0.0118
      6 C         140.2892  140.7226  168.6853 C.ar    1  UNL1        0.0685
      7 C         141.6893  140.8719  169.2024 C.ar    1  UNL1        0.0118
      8 C         142.7875  141.3085  168.2785 C.ar    1  UNL1        0.0199
      9 C         142.4855  141.5957  166.8376 C.ar    1  UNL1        0.0844
     10 N         143.5836  142.0322  165.9137 N.ar    1  UNL1       -0.2119
     11 C         143.2816  142.3194  164.4728 C.ar    1  UNL1        0.2211
     12 C         139.1911  140.2860  169.6092 C.1     1  UNL1        0.1004
     13 N         138.0930  139.8495  170.5331 N.1     1  UNL1       -0.1908
     14 O         144.3798  142.7560  163.5489 O.3     1  UNL1       -0.4563
     15 C         145.5918  141.8919  163.3636 C.3     1  UNL1        0.2542
     16 C         143.6626  139.9224  160.2820 C.ar    1  UNL1        0.1721
     17 C         144.2802  140.8612  159.2884 C.ar    1  UNL1        0.0400
     18 C         143.9975  142.3321  159.3703 C.ar    1  UNL1        0.0030
     19 C         143.0974  142.8641  160.4457 C.ar    1  UNL1       -0.0007
     20 C         142.4797  141.9253  161.4393 C.ar    1  UNL1        0.0213
     21 C         142.7623  140.4545  161.3575 C.ar    1  UNL1        0.1687
     22 C         142.9102  137.5188  159.6447 C.3     1  UNL1        0.2526
     23 O         143.9452  138.4515  160.2002 O.3     1  UNL1       -0.4684
     24 O         142.1447  139.5157  162.3511 O.3     1  UNL1       -0.4687
     25 C         143.0088  138.8106  163.3542 C.3     1  UNL1        0.2526
     26 C         140.3774  143.2766  162.1492 C.3     1  UNL1        0.1160
     27 O         140.9694  144.4603  162.8551 O.3     1  UNL1       -0.3820
     28 H         141.8969  144.5639  162.5906 H       1  UNL1        0.2107
     29 C         139.7853  142.0929  161.4433 C.ar    1  UNL1        0.0047
     30 C         139.7606  142.0488  159.9442 C.ar    1  UNL1        0.0127
     31 C         139.1686  140.8651  159.2383 C.ar    1  UNL1        0.0587
     32 C         139.1439  140.8210  157.7391 C.3     1  UNL1        0.0521
     33 N         138.6012  139.7254  160.0315 N.ar    1  UNL1       -0.2540
     34 C         138.6259  139.7695  161.5307 C.ar    1  UNL1        0.0587
     35 C         137.9891  138.4921  161.9923 C.3     1  UNL1        0.0521
     36 C         139.2179  140.9532  162.2365 C.ar    1  UNL1        0.0127
     37 C         139.1752  144.0958  161.7837 C.3     1  UNL1        0.0491
     38 C         138.4397  144.8623  162.8429 C.3     1  UNL1        0.0750
     39 N         138.2125  144.2475  164.1921 N.3     1  UNL1       -0.2702
     40 C         137.4233  142.9778  164.3145 C.3     1  UNL1        0.0897
     41 C         138.7745  144.9025  165.4190 C.3     1  UNL1        0.0897
@<TRIPOS>BOND
     1    22    23    1
     2    23    16    1
     3    16    17   ar
     4    17    18   ar
     5    18    19   ar
     6    19    20   ar
     7    20     1    1
     8     1     2    1
     9     2     3   ar
    10     3     4   ar
    11     4     5   ar
    12     5     6   ar
    13     6    12    1
    14    12    13    3
    15     6     7   ar
    16     7     8   ar
    17     8     9   ar
    18     9    10   ar
    19    10    11   ar
    20    11    14    1
    21    14    15    1
    22     1    26    1
    23    26    27    1
    24    26    37    1
    25    37    38    1
    26    38    39    1
    27    39    40    1
    28    39    41    1
    29    26    29    1
    30    29    30   ar
    31    30    31   ar
    32    31    32    1
    33    31    33   ar
    34    33    34   ar
    35    34    35    1
    36    34    36   ar
    37    20    21   ar
    38    21    24    1
    39    24    25    1
    40    21    16   ar
    41    11     2   ar
    42    36    29   ar
    43     9     4   ar
    44    27    28    1
@<TRIPOS>MOLECULE
*****
 41 44 0 0 0
SMALL
GASTEIGER

@<TRIPOS>ATOM
      1 C         141.6551  140.5593  163.0849 C.3     1  UNL1        0.0807
      2 C         141.9593  140.7221  164.5447 C.ar    1  UNL1        0.0375
      3 C         141.2252  141.7499  165.3538 C.ar    1  UNL1        0.0023
      4 C         141.5294  141.9126  166.8136 C.ar    1  UNL1        0.0183
      5 C         140.7953  142.9404  167.6227 C.ar    1  UNL1        0.0118
      6 C         141.0996  143.1032  169.0825 C.ar    1  UNL1        0.0685
      7 C         142.1380  142.2381  169.7331 C.ar    1  UNL1        0.0118
      8 C         142.8721  141.2103  168.9241 C.ar    1  UNL1        0.0199
      9 C         142.5678  141.0476  167.4643 C.ar    1  UNL1        0.0844
     10 N         143.3020  140.0197  166.6552 N.ar    1  UNL1       -0.2119
     11 C         142.9977  139.8570  165.1954 C.ar    1  UNL1        0.2211
     12 C         140.3654  144.1310  169.8916 C.1     1  UNL1        0.1004
     13 N         139.6313  145.1588  170.7007 N.1     1  UNL1       -0.1908
     14 O         143.7319  138.8292  164.3863 O.3     1  UNL1       -0.4563
     15 C         145.1272  139.1059  163.9103 C.3     1  UNL1        0.2542
     16 C         143.9110  140.9887  159.8482 C.ar    1  UNL1        0.1721
     17 C         144.3604  142.4114  160.0026 C.ar    1  UNL1        0.0400
     18 C         143.9080  143.2168  161.1844 C.ar    1  UNL1        0.0030
     19 C         143.0062  142.5994  162.2119 C.ar    1  UNL1       -0.0007
     20 C         142.5568  141.1767  162.0575 C.ar    1  UNL1        0.0213
     21 C         143.0091  140.3713  160.8757 C.ar    1  UNL1        0.1687
     22 C         144.7068  140.8701  157.3779 C.3     1  UNL1        0.2526
     23 O         144.3633  140.1833  158.6664 O.3     1  UNL1       -0.4684
     24 O         142.5597  138.9486  160.7213 O.3     1  UNL1       -0.4687
     25 C         143.5331  137.8273  160.9341 C.3     1  UNL1        0.2526
     26 C         140.4490  139.7792  162.6526 C.3     1  UNL1        0.1160
     27 O         141.0529  138.5299  163.2224 O.3     1  UNL1       -0.3820
     28 H         141.3901  138.7112  164.1136 H       1  UNL1        0.2107
     29 C         139.8452  141.0285  162.0828 C.ar    1  UNL1        0.0047
     30 C         139.3832  142.1232  162.9983 C.ar    1  UNL1        0.0127
     31 C         138.7793  143.3725  162.4285 C.ar    1  UNL1        0.0587
     32 C         138.3173  144.4672  163.3440 C.3     1  UNL1        0.0521
     33 N         138.6374  143.5270  160.9433 N.ar    1  UNL1       -0.2540
     34 C         139.0994  142.4323  160.0278 C.ar    1  UNL1        0.0587
     35 C         138.8128  142.9097  158.6349 C.3     1  UNL1        0.0521
     36 C         139.7033  141.1830  160.5976 C.ar    1  UNL1        0.0127
     37 C         139.2430  138.9991  162.2203 C.3     1  UNL1        0.0491
     38 C         138.1113  138.7752  163.1791 C.3     1  UNL1        0.0750
     39 N         138.3845  138.6702  164.6503 N.3     1  UNL1       -0.2702
     40 C         138.8395  137.3671  165.2375 C.3     1  UNL1        0.0897
     41 C         138.2025  139.8683  165.5343 C.3     1  UNL1        0.0897
@<TRIPOS>BOND
     1    22    23    1
     2    23    16    1
     3    16    17   ar
     4    17    18   ar
     5    18    19   ar
     6    19    20   ar
     7    20     1    1
     8     1     2    1
     9     2     3   ar
    10     3     4   ar
    11     4     5   ar
    12     5     6   ar
    13     6    12    1
    14    12    13    3
    15     6     7   ar
    16     7     8   ar
    17     8     9   ar
    18     9    10   ar
    19    10    11   ar
    20    11    14    1
    21    14    15    1
    22     1    26    1
    23    26    27    1
    24    26    37    1
    25    37    38    1
    26    38    39    1
    27    39    40    1
    28    39    41    1
    29    26    29    1
    30    29    30   ar
    31    30    31   ar
    32    31    32    1
    33    31    33   ar
    34    33    34   ar
    35    34    35    1
    36    34    36   ar
    37    20    21   ar
    38    21    24    1
    39    24    25    1
    40    21    16   ar
    41    11     2   ar
    42    36    29   ar
    43     9     4   ar
    44    27    28    1
@<TRIPOS>MOLECULE
*****
 41 44 0 0 0
SMALL
GASTEIGER

@<TRIPOS>ATOM
      1 C         142.1084  141.8584  163.0281 C.3     1  UNL1        0.0807
      2 C         142.3685  141.9715  164.5011 C.ar    1  UNL1        0.0375
      3 C         141.4921  141.2422  165.4757 C.ar    1  UNL1        0.0023
      4 C         141.7522  141.3553  166.9487 C.ar    1  UNL1        0.0183
      5 C         140.8758  140.6260  167.9233 C.ar    1  UNL1        0.0118
      6 C         141.1359  140.7392  169.3962 C.ar    1  UNL1        0.0685
      7 C         142.2726  141.5816  169.8945 C.ar    1  UNL1        0.0118
      8 C         143.1490  142.3109  168.9199 C.ar    1  UNL1        0.0199
      9 C         142.8889  142.1978  167.4470 C.ar    1  UNL1        0.0844
     10 N         143.7653  142.9271  166.4723 N.ar    1  UNL1       -0.2119
     11 C         143.5052  142.8139  164.9994 C.ar    1  UNL1        0.2211
     12 C         140.2594  140.0098  170.3708 C.1     1  UNL1        0.1004
     13 N         139.3830  139.2805  171.3455 N.1     1  UNL1       -0.1908
     14 O         144.3817  143.5433  164.0247 O.3     1  UNL1       -0.4563
     15 C         144.0879  144.9722  163.6756 C.3     1  UNL1        0.2542
     16 C         141.2200  144.7403  160.4484 C.ar    1  UNL1        0.1721
     17 C         139.8318  145.0980  160.8900 C.ar    1  UNL1        0.0400
     18 C         139.2025  144.3758  162.0443 C.ar    1  UNL1        0.0030
     19 C         139.9613  143.2959  162.7570 C.ar    1  UNL1       -0.0007
     20 C         141.3495  142.9382  162.3154 C.ar    1  UNL1        0.0213
     21 C         141.9788  143.6604  161.1612 C.ar    1  UNL1        0.1687
     22 C         141.0397  145.7669  158.0687 C.3     1  UNL1        0.2526
     23 O         141.8493  145.4625  159.2941 O.3     1  UNL1       -0.4684
     24 O         143.3670  143.3027  160.7196 O.3     1  UNL1       -0.4687
     25 C         143.6397  142.9973  159.2765 C.3     1  UNL1        0.2526
     26 C         142.6071  140.6653  162.2679 C.3     1  UNL1        0.1160
     27 O         144.0014  141.2162  162.3181 O.3     1  UNL1       -0.3820
     28 H         144.2019  141.5068  163.2216 H       1  UNL1        0.2107
     29 C         141.2129  140.1144  162.2177 C.ar    1  UNL1        0.0047
     30 C         140.7006  139.2661  163.3438 C.ar    1  UNL1        0.0127
     31 C         139.3064  138.7152  163.2936 C.ar    1  UNL1        0.0587
     32 C         138.7942  137.8669  164.4197 C.3     1  UNL1        0.0521
     33 N         138.4243  139.0126  162.1174 N.ar    1  UNL1       -0.2540
     34 C         138.9366  139.8609  160.9914 C.ar    1  UNL1        0.0587
     35 C         137.8143  139.9539  160.0003 C.3     1  UNL1        0.0521
     36 C         140.3308  140.4118  161.0415 C.ar    1  UNL1        0.0127
     37 C         143.1059  139.4723  161.5077 C.3     1  UNL1        0.0491
     38 C         143.8727  139.6624  160.2326 C.3     1  UNL1        0.0750
     39 N         143.3664  139.0593  158.9559 N.3     1  UNL1       -0.2702
     40 C         142.6723  137.7298  158.9780 C.3     1  UNL1        0.0897
     41 C         143.5541  139.7859  157.6570 C.3     1  UNL1        0.0897
@<TRIPOS>BOND
     1    22    23    1
     2    23    16    1
     3    16    17   ar
     4    17    18   ar
     5    18    19   ar
     6    19    20   ar
     7    20     1    1
     8     1     2    1
     9     2     3   ar
    10     3     4   ar
    11     4     5   ar
    12     5     6   ar
    13     6    12    1
    14    12    13    3
    15     6     7   ar
    16     7     8   ar
    17     8     9   ar
    18     9    10   ar
    19    10    11   ar
    20    11    14    1
    21    14    15    1
    22     1    26    1
    23    26    27    1
    24    26    37    1
    25    37    38    1
    26    38    39    1
    27    39    40    1
    28    39    41    1
    29    26    29    1
    30    29    30   ar
    31    30    31   ar
    32    31    32    1
    33    31    33   ar
    34    33    34   ar
    35    34    35    1
    36    34    36   ar
    37    20    21   ar
    38    21    24    1
    39    24    25    1
    40    21    16   ar
    41    11     2   ar
    42    36    29   ar
    43     9     4   ar
    44    27    28    1
