@<TRIPOS>MOLECULE
*****
 26 30 0 0 0
SMALL
GASTEIGER

@<TRIPOS>ATOM
      1 N         142.9311  141.8769  164.6978 N.pl3   1  UNL1       -0.3133
      2 C         142.7069  141.9126  166.1806 C.2     1  UNL1        0.2770
      3 N         141.5656  141.2742  166.9153 N.2     1  UNL1       -0.2204
      4 C         141.7380  141.5602  168.3777 C.3     1  UNL1        0.1537
      5 C         142.9858  142.3752  168.5467 C.3     1  UNL1        0.2350
      6 O         143.5846  142.5931  167.1889 O.2     1  UNL1       -0.4478
      7 C         140.5204  140.7458  168.0546 C.ar    1  UNL1        0.0356
      8 C         140.2177  140.3816  166.6314 C.ar    1  UNL1        0.0030
      9 C         139.0001  139.5672  166.3082 C.ar    1  UNL1        0.0304
     10 C         138.0853  139.1171  167.4084 C.ar    1  UNL1        0.1432
     11 F         136.8677  138.3027  167.0854 F       1  UNL1       -0.2041
     12 C         138.3880  139.4813  168.8317 C.ar    1  UNL1        0.0662
     13 C         139.6055  140.2956  169.1548 C.ar    1  UNL1        0.1386
     14 O         139.9083  140.6599  170.5781 O.3     1  UNL1       -0.4756
     15 C         141.1258  141.4742  170.9012 C.3     1  UNL1        0.2074
     16 C         142.0407  141.9244  169.8010 C.3     1  UNL1        0.0666
     17 C         143.2718  142.6544  169.3524 C.3     1  UNL1        0.0061
     18 C         142.9184  142.6048  170.8093 C.3     1  UNL1        0.0061
     19 H         142.2955  141.4018  164.1152 H       1  UNL1        0.1466
     20 H         143.7140  142.3284  164.3074 H       1  UNL1        0.1466
     21 C         138.6974  139.2030  164.8850 C.ar    1  UNL1        0.0405
     22 C         139.0347  137.8340  164.3731 C.ar    1  UNL1        0.1022
     23 N         138.7320  137.4698  162.9499 N.ar    1  UNL1       -0.2224
     24 C         138.0920  138.4747  162.0384 C.ar    1  UNL1        0.1989
     25 N         137.7547  139.8437  162.5502 N.ar    1  UNL1       -0.2224
     26 C         138.0575  140.2079  163.9736 C.ar    1  UNL1        0.1022
@<TRIPOS>BOND
     1     1     2    1
     2     2     3    2
     3     3     4    1
     4     4     5    1
     5     5     6    1
     6     4     7    1
     7     7     8   ar
     8     8     9   ar
     9     9    21    1
    10    21    22   ar
    11    22    23   ar
    12    23    24   ar
    13    24    25   ar
    14    25    26   ar
    15     9    10   ar
    16    10    11    1
    17    10    12   ar
    18    12    13   ar
    19    13    14    1
    20    14    15    1
    21    15    16    1
    22    16    17    1
    23    17    18    1
    24     6     2    1
    25    13     7   ar
    26    18    16    1
    27    16     4    1
    28    26    21   ar
    29     1    19    1
    30     1    20    1
@<TRIPOS>MOLECULE
*****
 26 30 0 0 0
SMALL
GASTEIGER

@<TRIPOS>ATOM
      1 N         138.8825  143.3722  165.4473 N.pl3   1  UNL1       -0.3133
      2 C         138.7734  142.2388  164.4708 C.2     1  UNL1        0.2770
      3 N         139.6076  140.9922  164.4702 N.2     1  UNL1       -0.2204
      4 C         139.1606  140.1360  163.3224 C.3     1  UNL1        0.1537
      5 C         138.0502  140.8535  162.6138 C.3     1  UNL1        0.2350
      6 O         137.8108  142.1530  163.3235 O.2     1  UNL1       -0.4478
      7 C         140.2764  139.5409  164.1293 C.ar    1  UNL1        0.0356
      8 C         140.8277  140.2845  165.3096 C.ar    1  UNL1        0.0030
      9 C         141.9435  139.6894  166.1164 C.ar    1  UNL1        0.0304
     10 C         142.5079  138.3508  165.7430 C.ar    1  UNL1        0.1432
     11 F         143.6236  137.7557  166.5498 F       1  UNL1       -0.2041
     12 C         141.9565  137.6072  164.5627 C.ar    1  UNL1        0.0662
     13 C         140.8408  138.2022  163.7559 C.ar    1  UNL1        0.1386
     14 O         140.2893  137.4587  162.5755 O.3     1  UNL1       -0.4756
     15 C         139.1736  138.0537  161.7687 C.3     1  UNL1        0.2074
     16 C         138.6092  139.3924  162.1422 C.3     1  UNL1        0.0666
     17 C         137.6392  140.5088  161.8920 C.3     1  UNL1        0.0061
     18 C         137.6467  139.3067  160.9949 C.3     1  UNL1        0.0061
     19 H         139.5495  143.3364  166.1705 H       1  UNL1        0.1466
     20 H         138.2871  144.1520  165.3649 H       1  UNL1        0.1466
     21 C         142.4949  140.4330  167.2967 C.ar    1  UNL1        0.0405
     22 C         142.5802  139.7595  168.6343 C.ar    1  UNL1        0.1022
     23 N         143.1315  140.5031  169.8146 N.ar    1  UNL1       -0.2224
     24 C         143.5976  141.9202  169.6573 C.ar    1  UNL1        0.1989
     25 N         143.5123  142.5937  168.3197 N.ar    1  UNL1       -0.2224
     26 C         142.9609  141.8500  167.1394 C.ar    1  UNL1        0.1022
@<TRIPOS>BOND
     1     1     2    1
     2     2     3    2
     3     3     4    1
     4     4     5    1
     5     5     6    1
     6     4     7    1
     7     7     8   ar
     8     8     9   ar
     9     9    21    1
    10    21    22   ar
    11    22    23   ar
    12    23    24   ar
    13    24    25   ar
    14    25    26   ar
    15     9    10   ar
    16    10    11    1
    17    10    12   ar
    18    12    13   ar
    19    13    14    1
    20    14    15    1
    21    15    16    1
    22    16    17    1
    23    17    18    1
    24     6     2    1
    25    13     7   ar
    26    18    16    1
    27    16     4    1
    28    26    21   ar
    29     1    19    1
    30     1    20    1
@<TRIPOS>MOLECULE
*****
 26 30 0 0 0
SMALL
GASTEIGER

@<TRIPOS>ATOM
      1 N         137.1999  142.4590  164.3113 N.pl3   1  UNL1       -0.3133
      2 C         138.4585  142.9076  163.6295 C.2     1  UNL1        0.2770
      3 N         139.8364  142.8902  164.2220 N.2     1  UNL1       -0.2204
      4 C         140.7896  143.4242  163.1941 C.3     1  UNL1        0.1537
      5 C         140.0007  143.7714  161.9665 C.3     1  UNL1        0.2350
      6 O         138.5601  143.4522  162.2356 O.2     1  UNL1       -0.4478
      7 C         141.4425  143.0319  164.4864 C.ar    1  UNL1        0.0356
      8 C         140.6137  142.4809  165.6085 C.ar    1  UNL1        0.0030
      9 C         141.2666  142.0886  166.9008 C.ar    1  UNL1        0.0304
     10 C         142.7485  142.2473  167.0708 C.ar    1  UNL1        0.1432
     11 F         143.4014  141.8551  168.3629 F       1  UNL1       -0.2041
     12 C         143.5774  142.7984  165.9485 C.ar    1  UNL1        0.0662
     13 C         142.9244  143.1906  164.6564 C.ar    1  UNL1        0.1386
     14 O         143.7533  143.7417  163.5341 O.3     1  UNL1       -0.4756
     15 C         143.1003  144.1339  162.2420 C.3     1  UNL1        0.2074
     16 C         141.6185  143.9752  162.0720 C.3     1  UNL1        0.0666
     17 C         140.3860  144.1100  161.2278 C.3     1  UNL1        0.0061
     18 C         141.7200  144.5198  160.6780 C.3     1  UNL1        0.0061
     19 H         137.2352  142.1144  165.2329 H       1  UNL1        0.1466
     20 H         136.3385  142.5092  163.8373 H       1  UNL1        0.1466
     21 C         140.4377  141.5376  168.0230 C.ar    1  UNL1        0.0405
     22 C         139.7936  140.1897  167.8878 C.ar    1  UNL1        0.1022
     23 N         138.9647  139.6387  169.0100 N.ar    1  UNL1       -0.2224
     24 C         138.7799  140.4356  170.2674 C.ar    1  UNL1        0.1989
     25 N         139.4241  141.7835  170.4025 N.ar    1  UNL1       -0.2224
     26 C         140.2530  142.3345  169.2802 C.ar    1  UNL1        0.1022
@<TRIPOS>BOND
     1     1     2    1
     2     2     3    2
     3     3     4    1
     4     4     5    1
     5     5     6    1
     6     4     7    1
     7     7     8   ar
     8     8     9   ar
     9     9    21    1
    10    21    22   ar
    11    22    23   ar
    12    23    24   ar
    13    24    25   ar
    14    25    26   ar
    15     9    10   ar
    16    10    11    1
    17    10    12   ar
    18    12    13   ar
    19    13    14    1
    20    14    15    1
    21    15    16    1
    22    16    17    1
    23    17    18    1
    24     6     2    1
    25    13     7   ar
    26    18    16    1
    27    16     4    1
    28    26    21   ar
    29     1    19    1
    30     1    20    1
@<TRIPOS>MOLECULE
*****
 26 30 0 0 0
SMALL
GASTEIGER

@<TRIPOS>ATOM
      1 N         141.9217  145.4515  164.1733 N.pl3   1  UNL1       -0.3133
      2 C         140.9889  144.5093  163.4717 C.2     1  UNL1        0.2770
      3 N         140.3559  143.2877  164.0691 N.2     1  UNL1       -0.2204
      4 C         139.5010  142.6467  163.0162 C.3     1  UNL1        0.1537
      5 C         139.6058  143.4722  161.7682 C.3     1  UNL1        0.2350
      6 O         140.5253  144.6233  162.0497 O.2     1  UNL1       -0.4478
      7 C         139.4944  141.9242  164.3308 C.ar    1  UNL1        0.0356
      8 C         140.3040  142.4492  165.4793 C.ar    1  UNL1        0.0030
      9 C         140.2973  141.7267  166.7938 C.ar    1  UNL1        0.0304
     10 C         139.4811  140.4792  166.9599 C.ar    1  UNL1        0.1432
     11 F         139.4744  139.7567  168.2744 F       1  UNL1       -0.2041
     12 C         138.6715  139.9543  165.8113 C.ar    1  UNL1        0.0662
     13 C         138.6781  140.6768  164.4969 C.ar    1  UNL1        0.1386
     14 O         137.8685  140.1518  163.3483 O.3     1  UNL1       -0.4756
     15 C         137.8752  140.8743  162.0339 C.3     1  UNL1        0.2074
     16 C         138.6915  142.1217  161.8678 C.3     1  UNL1        0.0666
     17 C         139.1665  143.2591  161.0130 C.3     1  UNL1        0.0061
     18 C         138.2279  142.2358  160.4458 C.3     1  UNL1        0.0061
     19 H         142.1683  145.2915  165.1128 H       1  UNL1        0.1466
     20 H         142.2874  146.2300  163.6941 H       1  UNL1        0.1466
     21 C         141.1069  142.2517  167.9423 C.ar    1  UNL1        0.0405
     22 C         140.4300  142.9763  169.0678 C.ar    1  UNL1        0.1022
     23 N         141.2396  143.5013  170.2162 N.ar    1  UNL1       -0.2224
     24 C         142.7261  143.3016  170.2392 C.ar    1  UNL1        0.1989
     25 N         143.4030  142.5770  169.1137 N.ar    1  UNL1       -0.2224
     26 C         142.5933  142.0520  167.9652 C.ar    1  UNL1        0.1022
@<TRIPOS>BOND
     1     1     2    1
     2     2     3    2
     3     3     4    1
     4     4     5    1
     5     5     6    1
     6     4     7    1
     7     7     8   ar
     8     8     9   ar
     9     9    21    1
    10    21    22   ar
    11    22    23   ar
    12    23    24   ar
    13    24    25   ar
    14    25    26   ar
    15     9    10   ar
    16    10    11    1
    17    10    12   ar
    18    12    13   ar
    19    13    14    1
    20    14    15    1
    21    15    16    1
    22    16    17    1
    23    17    18    1
    24     6     2    1
    25    13     7   ar
    26    18    16    1
    27    16     4    1
    28    26    21   ar
    29     1    19    1
    30     1    20    1
@<TRIPOS>MOLECULE
*****
 26 30 0 0 0
SMALL
GASTEIGER

@<TRIPOS>ATOM
      1 N         137.2511  142.1866  164.5276 N.pl3   1  UNL1       -0.3133
      2 C         138.0988  141.1971  163.7842 C.2     1  UNL1        0.2770
      3 N         139.3070  140.4905  164.3235 N.2     1  UNL1       -0.2204
      4 C         139.8419  139.5972  163.2436 C.3     1  UNL1        0.1537
      5 C         138.9642  139.7519  162.0370 C.3     1  UNL1        0.2350
      6 O         137.8869  140.7406  162.3712 O.2     1  UNL1       -0.4478
      7 C         140.6262  139.5469  164.5213 C.ar    1  UNL1        0.0356
      8 C         140.2088  140.3879  165.6911 C.ar    1  UNL1        0.0030
      9 C         140.9931  140.3376  166.9688 C.ar    1  UNL1        0.0304
     10 C         142.1947  139.4462  167.0766 C.ar    1  UNL1        0.1432
     11 F         142.9790  139.3958  168.3542 F       1  UNL1       -0.2041
     12 C         142.6120  138.6052  165.9067 C.ar    1  UNL1        0.0662
     13 C         141.8278  138.6555  164.6291 C.ar    1  UNL1        0.1386
     14 O         142.2451  137.8145  163.4591 O.3     1  UNL1       -0.4756
     15 C         141.4608  137.8649  162.1815 C.3     1  UNL1        0.2074
     16 C         140.2592  138.7562  162.0737 C.3     1  UNL1        0.0666
     17 C         139.1127  139.2999  161.2739 C.3     1  UNL1        0.0061
     18 C         140.0473  138.2997  160.6607 C.3     1  UNL1        0.0061
     19 H         137.4719  142.4234  165.4573 H       1  UNL1        0.1466
     20 H         136.4741  142.5992  164.0857 H       1  UNL1        0.1466
     21 C         140.5758  141.1786  168.1386 C.ar    1  UNL1        0.0405
     22 C         140.6902  142.6725  168.0671 C.ar    1  UNL1        0.1022
     23 N         140.2728  143.5135  169.2369 N.ar    1  UNL1       -0.2224
     24 C         139.7411  142.8606  170.4783 C.ar    1  UNL1        0.1989
     25 N         139.6267  141.3666  170.5498 N.ar    1  UNL1       -0.2224
     26 C         140.0441  140.5256  169.3799 C.ar    1  UNL1        0.1022
@<TRIPOS>BOND
     1     1     2    1
     2     2     3    2
     3     3     4    1
     4     4     5    1
     5     5     6    1
     6     4     7    1
     7     7     8   ar
     8     8     9   ar
     9     9    21    1
    10    21    22   ar
    11    22    23   ar
    12    23    24   ar
    13    24    25   ar
    14    25    26   ar
    15     9    10   ar
    16    10    11    1
    17    10    12   ar
    18    12    13   ar
    19    13    14    1
    20    14    15    1
    21    15    16    1
    22    16    17    1
    23    17    18    1
    24     6     2    1
    25    13     7   ar
    26    18    16    1
    27    16     4    1
    28    26    21   ar
    29     1    19    1
    30     1    20    1
@<TRIPOS>MOLECULE
*****
 26 30 0 0 0
SMALL
GASTEIGER

@<TRIPOS>ATOM
      1 N         144.0883  142.2440  165.5024 N.pl3   1  UNL1       -0.3133
      2 C         143.5836  141.1532  164.6048 C.2     1  UNL1        0.2770
      3 N         142.3350  140.3482  164.8117 N.2     1  UNL1       -0.2204
      4 C         142.2188  139.3734  163.6775 C.3     1  UNL1        0.1537
      5 C         143.3956  139.5761  162.7697 C.3     1  UNL1        0.2350
      6 O         144.2391  140.6760  163.3428 O.2     1  UNL1       -0.4478
      7 C         141.1012  139.2859  164.6742 C.ar    1  UNL1        0.0356
      8 C         141.0835  140.1999  165.8634 C.ar    1  UNL1        0.0030
      9 C         139.9659  140.1124  166.8601 C.ar    1  UNL1        0.0304
     10 C         138.8660  139.1109  166.6676 C.ar    1  UNL1        0.1432
     11 F         137.7485  139.0233  167.6642 F       1  UNL1       -0.2041
     12 C         138.8837  138.1968  165.4783 C.ar    1  UNL1        0.0662
     13 C         140.0012  138.2844  164.4817 C.ar    1  UNL1        0.1386
     14 O         140.0189  137.3703  163.2924 O.3     1  UNL1       -0.4756
     15 C         141.1365  137.4578  162.2957 C.3     1  UNL1        0.2074
     16 C         142.2364  138.4594  162.4883 C.3     1  UNL1        0.0666
     17 C         143.5167  139.0881  162.0240 C.3     1  UNL1        0.0061
     18 C         142.8918  137.9822  161.2263 C.3     1  UNL1        0.0061
     19 H         143.5850  142.4867  166.3130 H       1  UNL1        0.1466
     20 H         144.9228  142.7171  165.2809 H       1  UNL1        0.1466
     21 C         139.9483  141.0264  168.0493 C.ar    1  UNL1        0.0405
     22 C         140.4253  142.4421  167.9143 C.ar    1  UNL1        0.1022
     23 N         140.4077  143.3561  169.1035 N.ar    1  UNL1       -0.2224
     24 C         139.9130  142.8545  170.4278 C.ar    1  UNL1        0.1989
     25 N         139.4360  141.4388  170.5628 N.ar    1  UNL1       -0.2224
     26 C         139.4536  140.5247  169.3735 C.ar    1  UNL1        0.1022
@<TRIPOS>BOND
     1     1     2    1
     2     2     3    2
     3     3     4    1
     4     4     5    1
     5     5     6    1
     6     4     7    1
     7     7     8   ar
     8     8     9   ar
     9     9    21    1
    10    21    22   ar
    11    22    23   ar
    12    23    24   ar
    13    24    25   ar
    14    25    26   ar
    15     9    10   ar
    16    10    11    1
    17    10    12   ar
    18    12    13   ar
    19    13    14    1
    20    14    15    1
    21    15    16    1
    22    16    17    1
    23    17    18    1
    24     6     2    1
    25    13     7   ar
    26    18    16    1
    27    16     4    1
    28    26    21   ar
    29     1    19    1
    30     1    20    1
@<TRIPOS>MOLECULE
*****
 26 30 0 0 0
SMALL
GASTEIGER

@<TRIPOS>ATOM
      1 N         144.1929  141.6817  164.4509 N.pl3   1  UNL1       -0.3133
      2 C         143.0894  140.7941  163.9565 C.2     1  UNL1        0.2770
      3 N         141.8974  140.3451  164.7484 N.2     1  UNL1       -0.2204
      4 C         141.0555  139.4731  163.8646 C.3     1  UNL1        0.1537
      5 C         141.7273  139.3833  162.5265 C.3     1  UNL1        0.2350
      6 O         142.9843  140.1997  162.5833 O.2     1  UNL1       -0.4478
      7 C         140.5027  139.6552  165.2472 C.ar    1  UNL1        0.0356
      8 C         141.2375  140.5026  166.2431 C.ar    1  UNL1        0.0030
      9 C         140.6847  140.6848  167.6256 C.ar    1  UNL1        0.0304
     10 C         139.3970  140.0195  168.0121 C.ar    1  UNL1        0.1432
     11 F         138.8442  140.2016  169.3946 F       1  UNL1       -0.2041
     12 C         138.6622  139.1720  167.0161 C.ar    1  UNL1        0.0662
     13 C         139.2150  138.9899  165.6337 C.ar    1  UNL1        0.1386
     14 O         138.4802  138.1425  164.6377 O.3     1  UNL1       -0.4756
     15 C         139.0330  137.9604  163.2552 C.3     1  UNL1        0.2074
     16 C         140.3207  138.6257  162.8687 C.3     1  UNL1        0.0666
     17 C         141.3832  138.9046  161.8474 C.3     1  UNL1        0.0061
     18 C         140.2156  138.0313  161.4955 C.3     1  UNL1        0.0061
     19 H         144.1732  142.0241  165.3737 H       1  UNL1        0.1466
     20 H         144.9369  141.9220  163.8526 H       1  UNL1        0.1466
     21 C         141.4195  141.5322  168.6215 C.ar    1  UNL1        0.0405
     22 C         142.8183  141.1718  169.0257 C.ar    1  UNL1        0.1022
     23 N         143.5531  142.0192  170.0216 N.ar    1  UNL1       -0.2224
     24 C         142.8891  143.2271  170.6134 C.ar    1  UNL1        0.1989
     25 N         141.4902  143.5875  170.2093 N.ar    1  UNL1       -0.2224
     26 C         140.7554  142.7400  169.2133 C.ar    1  UNL1        0.1022
@<TRIPOS>BOND
     1     1     2    1
     2     2     3    2
     3     3     4    1
     4     4     5    1
     5     5     6    1
     6     4     7    1
     7     7     8   ar
     8     8     9   ar
     9     9    21    1
    10    21    22   ar
    11    22    23   ar
    12    23    24   ar
    13    24    25   ar
    14    25    26   ar
    15     9    10   ar
    16    10    11    1
    17    10    12   ar
    18    12    13   ar
    19    13    14    1
    20    14    15    1
    21    15    16    1
    22    16    17    1
    23    17    18    1
    24     6     2    1
    25    13     7   ar
    26    18    16    1
    27    16     4    1
    28    26    21   ar
    29     1    19    1
    30     1    20    1
@<TRIPOS>MOLECULE
*****
 26 30 0 0 0
SMALL
GASTEIGER

@<TRIPOS>ATOM
      1 N         143.7775  142.1930  165.6031 N.pl3   1  UNL1       -0.3133
      2 C         142.8105  141.9485  166.7236 C.2     1  UNL1        0.2770
      3 N         141.6157  141.0430  166.6750 N.2     1  UNL1       -0.2204
      4 C         140.9354  141.1014  168.0107 C.3     1  UNL1        0.1537
      5 C         141.7099  142.0430  168.8846 C.3     1  UNL1        0.2350
      6 O         142.8688  142.5664  168.0891 O.2     1  UNL1       -0.4478
      7 C         140.2662  140.1906  167.0244 C.ar    1  UNL1        0.0356
      8 C         140.8345  140.0311  165.6455 C.ar    1  UNL1        0.0030
      9 C         140.1653  139.1203  164.6592 C.ar    1  UNL1        0.0304
     10 C         138.9278  138.3690  165.0519 C.ar    1  UNL1        0.1432
     11 F         138.2586  137.4582  164.0657 F       1  UNL1       -0.2041
     12 C         138.3595  138.5286  166.4310 C.ar    1  UNL1        0.0662
     13 C         139.0287  139.4394  167.4172 C.ar    1  UNL1        0.1386
     14 O         138.4604  139.5990  168.7962 O.3     1  UNL1       -0.4756
     15 C         139.1296  140.5097  169.7824 C.3     1  UNL1        0.2074
     16 C         140.3671  141.2610  169.3896 C.3     1  UNL1        0.0666
     17 C         141.4679  142.2205  169.7323 C.3     1  UNL1        0.0061
     18 C         140.4253  141.8790  170.7552 C.3     1  UNL1        0.0061
     19 H         143.6546  141.7381  164.7387 H       1  UNL1        0.1466
     20 H         144.5350  142.8084  165.7322 H       1  UNL1        0.1466
     21 C         140.7336  138.9607  163.2802 C.ar    1  UNL1        0.0405
     22 C         140.6736  140.1011  162.3077 C.ar    1  UNL1        0.1022
     23 N         141.2419  139.9416  160.9288 N.ar    1  UNL1       -0.2224
     24 C         141.8703  138.6416  160.5223 C.ar    1  UNL1        0.1989
     25 N         141.9304  137.5012  161.4948 N.ar    1  UNL1       -0.2224
     26 C         141.3620  137.6608  162.8738 C.ar    1  UNL1        0.1022
@<TRIPOS>BOND
     1     1     2    1
     2     2     3    2
     3     3     4    1
     4     4     5    1
     5     5     6    1
     6     4     7    1
     7     7     8   ar
     8     8     9   ar
     9     9    21    1
    10    21    22   ar
    11    22    23   ar
    12    23    24   ar
    13    24    25   ar
    14    25    26   ar
    15     9    10   ar
    16    10    11    1
    17    10    12   ar
    18    12    13   ar
    19    13    14    1
    20    14    15    1
    21    15    16    1
    22    16    17    1
    23    17    18    1
    24     6     2    1
    25    13     7   ar
    26    18    16    1
    27    16     4    1
    28    26    21   ar
    29     1    19    1
    30     1    20    1
@<TRIPOS>MOLECULE
*****
 26 30 0 0 0
SMALL
GASTEIGER

@<TRIPOS>ATOM
      1 N         137.7026  141.3926  163.8948 N.pl3   1  UNL1       -0.3133
      2 C         138.6626  141.1707  165.0259 C.2     1  UNL1        0.2770
      3 N         140.0273  141.7795  165.1563 N.2     1  UNL1       -0.2204
      4 C         140.6345  141.2862  166.4362 C.3     1  UNL1        0.1537
      5 C         139.6451  140.3725  167.0967 C.3     1  UNL1        0.2350
      6 O         138.4264  140.3012  166.2251 O.2     1  UNL1       -0.4478
      7 C         141.5182  142.2180  165.6610 C.ar    1  UNL1        0.0356
      8 C         141.0436  142.7923  164.3591 C.ar    1  UNL1        0.0030
      9 C         141.9273  143.7242  163.5839 C.ar    1  UNL1        0.0304
     10 C         143.2854  144.0818  164.1107 C.ar    1  UNL1        0.1432
     11 F         144.1691  145.0136  163.3356 F       1  UNL1       -0.2041
     12 C         143.7600  143.5074  165.4127 C.ar    1  UNL1        0.0662
     13 C         142.8763  142.5756  166.1878 C.ar    1  UNL1        0.1386
     14 O         143.3508  142.0013  167.4898 O.3     1  UNL1       -0.4756
     15 C         142.4672  141.0695  168.2649 C.3     1  UNL1        0.2074
     16 C         141.1090  140.7119  167.7381 C.3     1  UNL1        0.0666
     17 C         139.8148  139.9675  167.8815 C.3     1  UNL1        0.0061
     18 C         140.8728  139.8423  168.9373 C.3     1  UNL1        0.0061
     19 H         137.9500  141.9847  163.1482 H       1  UNL1        0.1466
     20 H         136.8252  140.9460  163.8991 H       1  UNL1        0.1466
     21 C         141.4527  144.2985  162.2820 C.ar    1  UNL1        0.0405
     22 C         142.2181  144.0295  161.0203 C.ar    1  UNL1        0.1022
     23 N         141.7435  144.6038  159.7184 N.ar    1  UNL1       -0.2224
     24 C         140.5036  145.4470  159.6782 C.ar    1  UNL1        0.1989
     25 N         139.7383  145.7160  160.9399 N.ar    1  UNL1       -0.2224
     26 C         140.2129  145.1417  162.2418 C.ar    1  UNL1        0.1022
@<TRIPOS>BOND
     1     1     2    1
     2     2     3    2
     3     3     4    1
     4     4     5    1
     5     5     6    1
     6     4     7    1
     7     7     8   ar
     8     8     9   ar
     9     9    21    1
    10    21    22   ar
    11    22    23   ar
    12    23    24   ar
    13    24    25   ar
    14    25    26   ar
    15     9    10   ar
    16    10    11    1
    17    10    12   ar
    18    12    13   ar
    19    13    14    1
    20    14    15    1
    21    15    16    1
    22    16    17    1
    23    17    18    1
    24     6     2    1
    25    13     7   ar
    26    18    16    1
    27    16     4    1
    28    26    21   ar
    29     1    19    1
    30     1    20    1
