@<TRIPOS>MOLECULE
*****
 50 54 0 0 0
SMALL
GASTEIGER

@<TRIPOS>ATOM
      1 C         140.8381  142.8579  159.3688 C.ar    1  UNL1        0.0197
      2 C         140.0504  142.7143  158.1003 C.ar    1  UNL1        0.0986
      3 N         139.6595  143.9330  157.3182 N.ar    1  UNL1       -0.2399
      4 C         140.0563  145.2955  157.8045 C.ar    1  UNL1        0.1524
      5 C         140.8439  145.4391  159.0729 C.ar    1  UNL1        0.0205
      6 C         141.2348  144.2202  159.8551 C.ar    1  UNL1        0.0008
      7 C         142.3809  140.7932  159.6955 C.ar    1  UNL1        0.1387
      8 C         142.7718  139.5744  160.4777 C.ar    1  UNL1        0.0369
      9 C         142.0107  139.2015  161.7153 C.ar    1  UNL1        0.0031
     10 C         140.8587  140.0474  162.1707 C.ar    1  UNL1       -0.0001
     11 C         140.4679  141.2661  161.3886 C.ar    1  UNL1        0.0030
     12 C         141.2290  141.6390  160.1510 C.ar    1  UNL1        0.0352
     13 C         140.0976  139.6745  163.4083 C.ar    1  UNL1       -0.0039
     14 C         138.9854  140.5536  163.8983 C.ar    1  UNL1       -0.0003
     15 C         138.2243  140.1807  165.1359 C.ar    1  UNL1        0.0011
     16 C         138.5754  138.9286  165.8835 C.ar    1  UNL1        0.0137
     17 C         139.6875  138.0495  165.3935 C.ar    1  UNL1       -0.0031
     18 C         140.4486  138.4224  164.1559 C.ar    1  UNL1       -0.0218
     19 C         141.5608  137.5431  163.6660 C.3     1  UNL1        0.0310
     20 C         137.8142  138.5557  167.1211 C.2     1  UNL1        0.0729
     21 O         136.7543  137.4962  167.0590 O.co2   1  UNL1       -0.5446
     22 O         138.1131  139.2423  168.4208 O.co2   1  UNL1       -0.5446
     23 C         144.3919  141.9885  158.5653 C.3     1  UNL1        0.2525
     24 O         143.1420  141.1661  158.4579 O.3     1  UNL1       -0.4714
     25 C         139.6654  146.5142  157.0223 C.3     1  UNL1        0.4348
     26 F         139.2744  147.7330  156.2402 F       1  UNL1       -0.1644
     27 F         140.0522  145.8214  155.7494 F       1  UNL1       -0.1644
     28 F         139.2785  147.2070  158.2952 F       1  UNL1       -0.1644
     29 C         142.0225  144.3639  161.1236 C.3     1  UNL1        0.1236
     30 N         141.3723  144.0834  162.4460 N.am    1  UNL1       -0.2396
     31 C         140.0459  144.6118  162.9059 C.2     1  UNL1        0.4054
     32 O         139.1368  145.5133  162.1243 O.2     1  UNL1       -0.2262
     33 O         139.7881  144.0803  164.2848 O.3     1  UNL1       -0.4320
     34 C         140.9553  143.2235  164.6769 C.3     1  UNL1        0.2107
     35 C         141.9343  143.2254  163.5405 C.3     1  UNL1        0.1232
     36 C         143.2451  142.4972  163.5047 C.3     1  UNL1        0.0258
     37 C         141.1152  142.4930  165.9771 C.ar    1  UNL1        0.0189
     38 C         140.4882  143.0383  167.2259 C.ar    1  UNL1        0.0031
     39 C         140.6481  142.3078  168.5262 C.ar    1  UNL1        0.0712
     40 C         141.4352  141.0320  168.5777 C.ar    1  UNL1        0.0077
     41 C         142.0624  140.4866  167.3290 C.ar    1  UNL1        0.0712
     42 C         141.9023  141.2171  166.0287 C.ar    1  UNL1        0.0031
     43 C         140.0210  142.8532  169.7749 C.3     1  UNL1        0.4186
     44 F         139.3939  143.3985  171.0236 F       1  UNL1       -0.1659
     45 F         139.3192  141.5456  169.9934 F       1  UNL1       -0.1659
     46 F         140.7229  144.1608  169.5563 F       1  UNL1       -0.1659
     47 C         142.8495  139.2107  167.3806 C.3     1  UNL1        0.4186
     48 F         143.6366  137.9348  167.4321 F       1  UNL1       -0.1659
     49 F         143.2222  139.3823  165.9378 F       1  UNL1       -0.1659
     50 F         142.4767  139.0391  168.8233 F       1  UNL1       -0.1659
@<TRIPOS>UNITY_ATOM_ATTR
21 1
charge -1
@<TRIPOS>BOND
     1    23    24    1
     2    24     7    1
     3     7     8   ar
     4     8     9   ar
     5     9    10   ar
     6    10    13    1
     7    13    14   ar
     8    14    15   ar
     9    15    16   ar
    10    16    20    1
    11    20    21   ar
    12    20    22   ar
    13    16    17   ar
    14    17    18   ar
    15    18    19    1
    16    10    11   ar
    17    11    12   ar
    18    12     1    1
    19     1     2   ar
    20     2     3   ar
    21     3     4   ar
    22     4    25    1
    23    25    26    1
    24    25    27    1
    25    25    28    1
    26     4     5   ar
    27     5     6   ar
    28     6    29    1
    29    29    30    1
    30    30    31   am
    31    31    32    2
    32    31    33    1
    33    33    34    1
    34    34    37    1
    35    37    38   ar
    36    38    39   ar
    37    39    43    1
    38    43    44    1
    39    43    45    1
    40    43    46    1
    41    39    40   ar
    42    40    41   ar
    43    41    47    1
    44    47    48    1
    45    47    49    1
    46    47    50    1
    47    41    42   ar
    48    34    35    1
    49    35    36    1
    50    12     7   ar
    51     6     1   ar
    52    35    30    1
    53    18    13   ar
    54    42    37   ar
@<TRIPOS>MOLECULE
*****
 50 54 0 0 0
SMALL
GASTEIGER

@<TRIPOS>ATOM
      1 C         140.5522  142.3827  158.9321 C.ar    1  UNL1        0.0197
      2 C         139.5893  142.3937  157.7820 C.ar    1  UNL1        0.0986
      3 N         139.3283  143.6678  157.0346 N.ar    1  UNL1       -0.2399
      4 C         140.0302  144.9309  157.4372 C.ar    1  UNL1        0.1524
      5 C         140.9931  144.9198  158.5874 C.ar    1  UNL1        0.0205
      6 C         141.2541  143.6457  159.3348 C.ar    1  UNL1        0.0008
      7 C         141.7072  140.0605  159.0860 C.ar    1  UNL1        0.1387
      8 C         141.9682  138.7865  159.8334 C.ar    1  UNL1        0.0369
      9 C         141.3351  138.5605  161.1744 C.ar    1  UNL1        0.0031
     10 C         140.4411  139.6086  161.7679 C.ar    1  UNL1       -0.0001
     11 C         140.1802  140.8826  161.0205 C.ar    1  UNL1        0.0030
     12 C         140.8132  141.1086  159.6795 C.ar    1  UNL1        0.0352
     13 C         139.8081  139.3826  163.1089 C.ar    1  UNL1       -0.0039
     14 C         138.7962  140.3572  163.6344 C.ar    1  UNL1       -0.0003
     15 C         138.1632  140.1312  164.9754 C.ar    1  UNL1        0.0011
     16 C         138.5421  138.9306  165.7908 C.ar    1  UNL1        0.0137
     17 C         139.5540  137.9560  165.2653 C.ar    1  UNL1       -0.0031
     18 C         140.1870  138.1820  163.9244 C.ar    1  UNL1       -0.0218
     19 C         141.1989  137.2073  163.3989 C.3     1  UNL1        0.0310
     20 C         137.9090  138.7046  167.1318 C.2     1  UNL1        0.0729
     21 O         136.7366  137.7780  167.2611 O.co2   1  UNL1       -0.5446
     22 O         138.4484  139.4052  168.3435 O.co2   1  UNL1       -0.5446
     23 C         143.7446  140.8060  157.6566 C.3     1  UNL1        0.2525
     24 O         142.3402  140.2865  157.7450 O.3     1  UNL1       -0.4714
     25 C         139.7692  146.2049  156.6898 C.3     1  UNL1        0.4348
     26 F         139.5082  147.4789  155.9424 F       1  UNL1       -0.1644
     27 F         139.9284  145.4746  155.3894 F       1  UNL1       -0.1644
     28 F         139.6100  146.9352  157.9903 F       1  UNL1       -0.1644
     29 C         142.2170  143.6346  160.4849 C.3     1  UNL1        0.1236
     30 N         141.7038  143.5510  161.8919 N.am    1  UNL1       -0.2396
     31 C         140.6593  144.4371  162.5035 C.2     1  UNL1        0.4054
     32 O         139.9447  145.5623  161.8156 O.2     1  UNL1       -0.2262
     33 O         140.4549  144.0003  163.9240 O.3     1  UNL1       -0.4320
     34 C         141.3731  142.8443  164.1901 C.3     1  UNL1        0.2107
     35 C         142.1449  142.5667  162.9343 C.3     1  UNL1        0.1232
     36 C         143.1766  141.4932  162.7526 C.3     1  UNL1        0.0258
     37 C         141.4975  142.0973  165.4848 C.ar    1  UNL1        0.0189
     38 C         142.2673  140.8109  165.5375 C.ar    1  UNL1        0.0031
     39 C         142.3917  140.0638  166.8322 C.ar    1  UNL1        0.0712
     40 C         141.7464  140.6030  168.0743 C.ar    1  UNL1        0.0077
     41 C         140.9766  141.8894  168.0217 C.ar    1  UNL1        0.0712
     42 C         140.8522  142.6365  166.7269 C.ar    1  UNL1        0.0031
     43 C         143.1615  138.7775  166.8849 C.3     1  UNL1        0.4186
     44 F         143.9312  137.4912  166.9375 F       1  UNL1       -0.1659
     45 F         143.3713  138.8423  165.4010 F       1  UNL1       -0.1659
     46 F         142.9517  138.7126  168.3688 F       1  UNL1       -0.1659
     47 C         140.3313  142.4287  169.2638 C.3     1  UNL1        0.4186
     48 F         139.6860  142.9679  170.5059 F       1  UNL1       -0.1659
     49 F         140.5719  141.1203  169.9568 F       1  UNL1       -0.1659
     50 F         140.0908  143.7371  168.5708 F       1  UNL1       -0.1659
@<TRIPOS>UNITY_ATOM_ATTR
21 1
charge -1
@<TRIPOS>BOND
     1    23    24    1
     2    24     7    1
     3     7     8   ar
     4     8     9   ar
     5     9    10   ar
     6    10    13    1
     7    13    14   ar
     8    14    15   ar
     9    15    16   ar
    10    16    20    1
    11    20    21   ar
    12    20    22   ar
    13    16    17   ar
    14    17    18   ar
    15    18    19    1
    16    10    11   ar
    17    11    12   ar
    18    12     1    1
    19     1     2   ar
    20     2     3   ar
    21     3     4   ar
    22     4    25    1
    23    25    26    1
    24    25    27    1
    25    25    28    1
    26     4     5   ar
    27     5     6   ar
    28     6    29    1
    29    29    30    1
    30    30    31   am
    31    31    32    2
    32    31    33    1
    33    33    34    1
    34    34    37    1
    35    37    38   ar
    36    38    39   ar
    37    39    43    1
    38    43    44    1
    39    43    45    1
    40    43    46    1
    41    39    40   ar
    42    40    41   ar
    43    41    47    1
    44    47    48    1
    45    47    49    1
    46    47    50    1
    47    41    42   ar
    48    34    35    1
    49    35    36    1
    50    12     7   ar
    51     6     1   ar
    52    35    30    1
    53    18    13   ar
    54    42    37   ar
@<TRIPOS>MOLECULE
*****
 50 54 0 0 0
SMALL
GASTEIGER

@<TRIPOS>ATOM
      1 C         141.9828  142.7951  159.5308 C.ar    1  UNL1        0.0197
      2 C         142.9901  143.6399  158.8087 C.ar    1  UNL1        0.0986
      3 N         142.5323  144.7623  157.9251 N.ar    1  UNL1       -0.2399
      4 C         141.0671  145.0398  157.7637 C.ar    1  UNL1        0.1524
      5 C         140.0597  144.1950  158.4857 C.ar    1  UNL1        0.0205
      6 C         140.5176  143.0726  159.3693 C.ar    1  UNL1        0.0008
      7 C         142.8186  140.3514  159.8133 C.ar    1  UNL1        0.1387
      8 C         143.2764  139.2291  160.6969 C.ar    1  UNL1        0.0369
      9 C         143.3564  139.4280  162.1815 C.ar    1  UNL1        0.0031
     10 C         142.9784  140.7493  162.7825 C.ar    1  UNL1       -0.0001
     11 C         142.5206  141.8716  161.8989 C.ar    1  UNL1        0.0030
     12 C         142.4406  141.6727  160.4143 C.ar    1  UNL1        0.0352
     13 C         143.0583  140.9483  164.2671 C.ar    1  UNL1       -0.0039
     14 C         143.5563  142.2491  164.8237 C.ar    1  UNL1       -0.0003
     15 C         143.6363  142.4481  166.3083 C.ar    1  UNL1        0.0011
     16 C         143.2182  141.3463  167.2363 C.ar    1  UNL1        0.0137
     17 C         142.7202  140.0455  166.6797 C.ar    1  UNL1       -0.0031
     18 C         142.6402  139.8465  165.1951 C.ar    1  UNL1       -0.0218
     19 C         142.1422  138.5456  164.6385 C.3     1  UNL1        0.0310
     20 C         143.2981  141.5453  168.7209 C.2     1  UNL1        0.0729
     21 O         143.4924  142.9220  169.2837 O.co2   1  UNL1       -0.5446
     22 O         143.1837  140.3675  169.6427 O.co2   1  UNL1       -0.5446
     23 C         141.4894  139.5956  157.7128 C.3     1  UNL1        0.2525
     24 O         142.7387  140.1524  158.3287 O.3     1  UNL1       -0.4714
     25 C         140.6092  146.1622  156.8801 C.3     1  UNL1        0.4348
     26 F         140.1514  147.2845  155.9966 F       1  UNL1       -0.1644
     27 F         141.4979  145.6596  155.7812 F       1  UNL1       -0.1644
     28 F         139.7206  146.6648  157.9790 F       1  UNL1       -0.1644
     29 C         139.5102  142.2277  160.0914 C.3     1  UNL1        0.1236
     30 N         139.3201  142.3872  161.5708 N.am    1  UNL1       -0.2396
     31 C         139.0737  143.6781  162.2939 C.2     1  UNL1        0.4054
     32 O         138.9742  145.0362  161.6647 O.2     1  UNL1       -0.2262
     33 O         138.9444  143.3726  163.7568 O.3     1  UNL1       -0.4320
     34 C         139.1108  141.8928  163.9377 C.3     1  UNL1        0.2107
     35 C         139.3430  141.2839  162.5867 C.3     1  UNL1        0.1232
     36 C         139.5600  139.8273  162.3016 C.3     1  UNL1        0.0258
     37 C         139.0548  141.1521  165.2408 C.ar    1  UNL1        0.0189
     38 C         139.5751  141.7952  166.4921 C.ar    1  UNL1        0.0031
     39 C         139.5192  141.0545  167.7952 C.ar    1  UNL1        0.0712
     40 C         138.9429  139.6706  167.8471 C.ar    1  UNL1        0.0077
     41 C         138.4225  139.0274  166.5958 C.ar    1  UNL1        0.0712
     42 C         138.4785  139.7682  165.2927 C.ar    1  UNL1        0.0031
     43 C         140.0395  141.6977  169.0464 C.3     1  UNL1        0.4186
     44 F         140.5598  142.3409  170.2976 F       1  UNL1       -0.1659
     45 F         140.3739  142.9370  168.2703 F       1  UNL1       -0.1659
     46 F         139.7050  140.4584  169.8226 F       1  UNL1       -0.1659
     47 C         137.8462  137.6435  166.6478 C.3     1  UNL1        0.4186
     48 F         137.2699  136.2596  166.6997 F       1  UNL1       -0.1659
     49 F         138.7644  137.2196  165.5400 F       1  UNL1       -0.1659
     50 F         136.9280  138.0675  167.7555 F       1  UNL1       -0.1659
@<TRIPOS>UNITY_ATOM_ATTR
21 1
charge -1
@<TRIPOS>BOND
     1    23    24    1
     2    24     7    1
     3     7     8   ar
     4     8     9   ar
     5     9    10   ar
     6    10    13    1
     7    13    14   ar
     8    14    15   ar
     9    15    16   ar
    10    16    20    1
    11    20    21   ar
    12    20    22   ar
    13    16    17   ar
    14    17    18   ar
    15    18    19    1
    16    10    11   ar
    17    11    12   ar
    18    12     1    1
    19     1     2   ar
    20     2     3   ar
    21     3     4   ar
    22     4    25    1
    23    25    26    1
    24    25    27    1
    25    25    28    1
    26     4     5   ar
    27     5     6   ar
    28     6    29    1
    29    29    30    1
    30    30    31   am
    31    31    32    2
    32    31    33    1
    33    33    34    1
    34    34    37    1
    35    37    38   ar
    36    38    39   ar
    37    39    43    1
    38    43    44    1
    39    43    45    1
    40    43    46    1
    41    39    40   ar
    42    40    41   ar
    43    41    47    1
    44    47    48    1
    45    47    49    1
    46    47    50    1
    47    41    42   ar
    48    34    35    1
    49    35    36    1
    50    12     7   ar
    51     6     1   ar
    52    35    30    1
    53    18    13   ar
    54    42    37   ar
@<TRIPOS>MOLECULE
*****
 50 54 0 0 0
SMALL
GASTEIGER

@<TRIPOS>ATOM
      1 C         141.9405  142.8171  159.5232 C.ar    1  UNL1        0.0197
      2 C         142.9736  143.6258  158.7960 C.ar    1  UNL1        0.0986
      3 N         142.5512  144.7618  157.9123 N.ar    1  UNL1       -0.2399
      4 C         141.0957  145.0891  157.7556 C.ar    1  UNL1        0.1524
      5 C         140.0626  144.2804  158.4828 C.ar    1  UNL1        0.0205
      6 C         140.4851  143.1444  159.3667 C.ar    1  UNL1        0.0008
      7 C         142.6800  140.3428  159.8083 C.ar    1  UNL1        0.1387
      8 C         143.1024  139.2069  160.6921 C.ar    1  UNL1        0.0369
      9 C         143.2078  139.4092  162.1747 C.ar    1  UNL1        0.0031
     10 C         142.8908  140.7475  162.7734 C.ar    1  UNL1       -0.0001
     11 C         142.4684  141.8834  161.8896 C.ar    1  UNL1        0.0030
     12 C         142.3630  141.6811  160.4071 C.ar    1  UNL1        0.0352
     13 C         142.9963  140.9498  164.2560 C.ar    1  UNL1       -0.0039
     14 C         143.4988  142.2537  164.8011 C.ar    1  UNL1       -0.0003
     15 C         143.6043  142.4560  166.2836 C.ar    1  UNL1        0.0011
     16 C         143.2072  141.3544  167.2211 C.ar    1  UNL1        0.0137
     17 C         142.7046  140.0505  166.6759 C.ar    1  UNL1       -0.0031
     18 C         142.5992  139.8482  165.1934 C.ar    1  UNL1       -0.0218
     19 C         142.0966  138.5442  164.6482 C.3     1  UNL1        0.0310
     20 C         143.3126  141.5568  168.7036 C.2     1  UNL1        0.0729
     21 O         143.1802  140.3858  169.6316 O.co2   1  UNL1       -0.5446
     22 O         143.5504  142.9300  169.2581 O.co2   1  UNL1       -0.5446
     23 C         141.3081  139.6002  157.7307 C.3     1  UNL1        0.2525
     24 O         142.5745  140.1405  158.3258 O.3     1  UNL1       -0.4714
     25 C         140.6733  146.2251  156.8719 C.3     1  UNL1        0.4348
     26 F         140.2509  147.3611  155.9881 F       1  UNL1       -0.1644
     27 F         139.6089  146.5985  157.8605 F       1  UNL1       -0.1644
     28 F         141.7377  145.8517  155.8832 F       1  UNL1       -0.1644
     29 C         139.4520  142.3357  160.0939 C.3     1  UNL1        0.1236
     30 N         139.2926  142.4829  161.5781 N.am    1  UNL1       -0.2396
     31 C         139.0868  143.7707  162.3192 C.2     1  UNL1        0.4054
     32 O         139.0043  145.1373  161.7064 O.2     1  UNL1       -0.2262
     33 O         138.9780  143.4519  163.7810 O.3     1  UNL1       -0.4320
     34 C         139.1166  141.9671  163.9432 C.3     1  UNL1        0.2107
     35 C         139.3110  141.3683  162.5817 C.3     1  UNL1        0.1232
     36 C         139.4920  139.9107  162.2773 C.3     1  UNL1        0.0258
     37 C         139.0690  141.2135  165.2392 C.ar    1  UNL1        0.0189
     38 C         138.5051  139.8241  165.2787 C.ar    1  UNL1        0.0031
     39 C         138.4576  139.0705  166.5747 C.ar    1  UNL1        0.0712
     40 C         138.9740  139.7063  167.8314 C.ar    1  UNL1        0.0077
     41 C         139.5379  141.0958  167.7919 C.ar    1  UNL1        0.0712
     42 C         139.5854  141.8493  166.4958 C.ar    1  UNL1        0.0031
     43 C         137.8936  137.6812  166.6142 C.3     1  UNL1        0.4186
     44 F         137.3297  136.2918  166.6537 F       1  UNL1       -0.1659
     45 F         136.9571  138.0925  167.7113 F       1  UNL1       -0.1659
     46 F         138.8302  137.2698  165.5170 F       1  UNL1       -0.1659
     47 C         140.0543  141.7315  169.0486 C.3     1  UNL1        0.4186
     48 F         140.5707  142.3673  170.3052 F       1  UNL1       -0.1659
     49 F         140.3647  142.9857  168.2865 F       1  UNL1       -0.1659
     50 F         139.7440  140.4774  169.8106 F       1  UNL1       -0.1659
@<TRIPOS>UNITY_ATOM_ATTR
21 1
charge -1
@<TRIPOS>BOND
     1    23    24    1
     2    24     7    1
     3     7     8   ar
     4     8     9   ar
     5     9    10   ar
     6    10    13    1
     7    13    14   ar
     8    14    15   ar
     9    15    16   ar
    10    16    20    1
    11    20    21   ar
    12    20    22   ar
    13    16    17   ar
    14    17    18   ar
    15    18    19    1
    16    10    11   ar
    17    11    12   ar
    18    12     1    1
    19     1     2   ar
    20     2     3   ar
    21     3     4   ar
    22     4    25    1
    23    25    26    1
    24    25    27    1
    25    25    28    1
    26     4     5   ar
    27     5     6   ar
    28     6    29    1
    29    29    30    1
    30    30    31   am
    31    31    32    2
    32    31    33    1
    33    33    34    1
    34    34    37    1
    35    37    38   ar
    36    38    39   ar
    37    39    43    1
    38    43    44    1
    39    43    45    1
    40    43    46    1
    41    39    40   ar
    42    40    41   ar
    43    41    47    1
    44    47    48    1
    45    47    49    1
    46    47    50    1
    47    41    42   ar
    48    34    35    1
    49    35    36    1
    50    12     7   ar
    51     6     1   ar
    52    35    30    1
    53    18    13   ar
    54    42    37   ar
@<TRIPOS>MOLECULE
*****
 50 54 0 0 0
SMALL
GASTEIGER

@<TRIPOS>ATOM
      1 C         141.2778  140.4318  157.8124 C.ar    1  UNL1        0.0197
      2 C         142.1069  141.0823  156.7450 C.ar    1  UNL1        0.0986
      3 N         141.4397  141.7411  155.5742 N.ar    1  UNL1       -0.2399
      4 C         139.9432  141.7493  155.4708 C.ar    1  UNL1        0.1524
      5 C         139.1141  141.0988  156.5382 C.ar    1  UNL1        0.0205
      6 C         139.7814  140.4400  157.7090 C.ar    1  UNL1        0.0008
      7 C         142.2635  138.3079  158.9383 C.ar    1  UNL1        0.1387
      8 C         142.9308  137.6492  160.1091 C.ar    1  UNL1        0.0369
      9 C         143.2796  138.4556  161.3248 C.ar    1  UNL1        0.0031
     10 C         142.9612  139.9207  161.3698 C.ar    1  UNL1       -0.0001
     11 C         142.2939  140.5794  160.1990 C.ar    1  UNL1        0.0030
     12 C         141.9451  139.7730  158.9833 C.ar    1  UNL1        0.0352
     13 C         143.3100  140.7270  162.5856 C.ar    1  UNL1       -0.0039
     14 C         144.0768  142.0081  162.4412 C.ar    1  UNL1       -0.0003
     15 C         144.4256  142.8145  163.6570 C.ar    1  UNL1        0.0011
     16 C         144.0077  142.3398  165.0171 C.ar    1  UNL1        0.0137
     17 C         143.2409  141.0588  165.1614 C.ar    1  UNL1       -0.0031
     18 C         142.8921  140.2524  163.9457 C.ar    1  UNL1       -0.0218
     19 C         142.1252  138.9713  164.0901 C.3     1  UNL1        0.0310
     20 C         144.3565  143.1462  166.2328 C.2     1  UNL1        0.0729
     21 O         143.7774  142.7801  167.5672 O.co2   1  UNL1       -0.5446
     22 O         145.2845  144.3187  166.1142 O.co2   1  UNL1       -0.5446
     23 C         143.0035  136.9124  156.8755 C.3     1  UNL1        0.2525
     24 O         141.9147  137.5015  157.7225 O.3     1  UNL1       -0.4714
     25 C         139.2760  142.4081  154.3000 C.3     1  UNL1        0.4348
     26 F         138.6087  143.0668  153.1292 F       1  UNL1       -0.1644
     27 F         140.6100  142.8873  153.8094 F       1  UNL1       -0.1644
     28 F         137.9420  141.9289  154.7906 F       1  UNL1       -0.1644
     29 C         138.9522  139.7895  158.7764 C.3     1  UNL1        0.1236
     30 N         138.8318  140.4302  160.1274 N.am    1  UNL1       -0.2396
     31 C         138.4975  141.8679  160.3945 C.2     1  UNL1        0.4054
     32 O         138.2249  142.9172  159.3578 O.2     1  UNL1       -0.2262
     33 O         138.4836  142.0721  161.8806 O.3     1  UNL1       -0.4320
     34 C         138.8093  140.7606  162.5317 C.3     1  UNL1        0.2107
     35 C         139.0245  139.7459  161.4481 C.3     1  UNL1        0.1232
     36 C         139.3715  138.3006  161.6499 C.3     1  UNL1        0.0258
     37 C         138.9033  140.5081  164.0072 C.ar    1  UNL1        0.0189
     38 C         139.5603  141.5182  164.9007 C.ar    1  UNL1        0.0031
     39 C         139.6543  141.2657  166.3762 C.ar    1  UNL1        0.0712
     40 C         139.0913  140.0032  166.9585 C.ar    1  UNL1        0.0077
     41 C         138.4343  138.9930  166.0651 C.ar    1  UNL1        0.0712
     42 C         138.3403  139.2456  164.5895 C.ar    1  UNL1        0.0031
     43 C         140.3113  142.2758  167.2696 C.3     1  UNL1        0.4186
     44 F         140.9682  143.2858  168.1629 F       1  UNL1       -0.1659
     45 F         140.7472  143.0571  166.0656 F       1  UNL1       -0.1659
     46 F         139.8753  141.4945  168.4736 F       1  UNL1       -0.1659
     47 C         137.8713  137.7305  166.6474 C.3     1  UNL1        0.4186
     48 F         137.3084  136.4679  167.2296 F       1  UNL1       -0.1659
     49 F         137.2045  138.5269  167.7295 F       1  UNL1       -0.1659
     50 F         138.5382  136.9341  165.5652 F       1  UNL1       -0.1659
@<TRIPOS>UNITY_ATOM_ATTR
21 1
charge -1
@<TRIPOS>BOND
     1    23    24    1
     2    24     7    1
     3     7     8   ar
     4     8     9   ar
     5     9    10   ar
     6    10    13    1
     7    13    14   ar
     8    14    15   ar
     9    15    16   ar
    10    16    20    1
    11    20    21   ar
    12    20    22   ar
    13    16    17   ar
    14    17    18   ar
    15    18    19    1
    16    10    11   ar
    17    11    12   ar
    18    12     1    1
    19     1     2   ar
    20     2     3   ar
    21     3     4   ar
    22     4    25    1
    23    25    26    1
    24    25    27    1
    25    25    28    1
    26     4     5   ar
    27     5     6   ar
    28     6    29    1
    29    29    30    1
    30    30    31   am
    31    31    32    2
    32    31    33    1
    33    33    34    1
    34    34    37    1
    35    37    38   ar
    36    38    39   ar
    37    39    43    1
    38    43    44    1
    39    43    45    1
    40    43    46    1
    41    39    40   ar
    42    40    41   ar
    43    41    47    1
    44    47    48    1
    45    47    49    1
    46    47    50    1
    47    41    42   ar
    48    34    35    1
    49    35    36    1
    50    12     7   ar
    51     6     1   ar
    52    35    30    1
    53    18    13   ar
    54    42    37   ar
@<TRIPOS>MOLECULE
*****
 50 54 0 0 0
SMALL
GASTEIGER

@<TRIPOS>ATOM
      1 C         140.9015  138.8007  158.1267 C.ar    1  UNL1        0.0197
      2 C         139.9397  137.9458  157.3559 C.ar    1  UNL1        0.0986
      3 N         140.4556  136.9125  156.3989 N.ar    1  UNL1       -0.2399
      4 C         141.9333  136.7340  156.2125 C.ar    1  UNL1        0.1524
      5 C         142.8950  137.5889  156.9834 C.ar    1  UNL1        0.0205
      6 C         142.3791  138.6223  157.9405 C.ar    1  UNL1        0.0008
      7 C         140.1608  141.2421  158.6180 C.ar    1  UNL1        0.1387
      8 C         139.6449  142.2754  159.5751 C.ar    1  UNL1        0.0369
      9 C         139.3538  141.9007  160.9981 C.ar    1  UNL1        0.0031
     10 C         139.5785  140.4927  161.4640 C.ar    1  UNL1       -0.0001
     11 C         140.0944  139.4594  160.5068 C.ar    1  UNL1        0.0030
     12 C         140.3856  139.8341  159.0839 C.ar    1  UNL1        0.0352
     13 C         139.2873  140.1181  162.8869 C.ar    1  UNL1       -0.0039
     14 C         138.7266  138.7640  163.2063 C.ar    1  UNL1       -0.0003
     15 C         138.4354  138.3893  164.6292 C.ar    1  UNL1        0.0011
     16 C         138.7050  139.3687  165.7329 C.ar    1  UNL1        0.0137
     17 C         139.2658  140.7228  165.4135 C.ar    1  UNL1       -0.0031
     18 C         139.5570  141.0974  163.9906 C.ar    1  UNL1       -0.0218
     19 C         140.1178  142.4516  163.6713 C.3     1  UNL1        0.0310
     20 C         138.4139  138.9941  167.1558 C.2     1  UNL1        0.0729
     21 O         137.4217  137.9105  167.4581 O.co2   1  UNL1       -0.5446
     22 O         139.1148  139.7030  168.2765 O.co2   1  UNL1       -0.5446
     23 C         139.3508  141.6071  156.1766 C.3     1  UNL1        0.2525
     24 O         140.4520  141.6167  157.1950 O.3     1  UNL1       -0.4714
     25 C         142.4491  135.7006  155.2555 C.3     1  UNL1        0.4348
     26 F         142.9650  134.6673  154.2984 F       1  UNL1       -0.1644
     27 F         141.2645  134.8310  155.5560 F       1  UNL1       -0.1644
     28 F         143.6337  136.5703  154.9550 F       1  UNL1       -0.1644
     29 C         143.3409  139.4771  158.7113 C.3     1  UNL1        0.1236
     30 N         143.4153  139.3624  160.2051 N.am    1  UNL1       -0.2396
     31 C         143.5940  138.0930  160.9840 C.2     1  UNL1        0.4054
     32 O         143.7295  136.7155  160.4060 O.2     1  UNL1       -0.2262
     33 O         143.6133  138.4430  162.4426 O.3     1  UNL1       -0.4320
     34 C         143.4465  139.9287  162.5650 C.3     1  UNL1        0.2107
     35 C         143.3242  140.4969  161.1821 C.3     1  UNL1        0.1232
     36 C         143.1426  141.9453  160.8369 C.3     1  UNL1        0.0258
     37 C         143.4088  140.7091  163.8453 C.ar    1  UNL1        0.0189
     38 C         142.9911  140.0386  165.1205 C.ar    1  UNL1        0.0031
     39 C         142.9534  140.8190  166.4008 C.ar    1  UNL1        0.0712
     40 C         143.3332  142.2701  166.4062 C.ar    1  UNL1        0.0077
     41 C         143.7509  142.9408  165.1310 C.ar    1  UNL1        0.0712
     42 C         143.7886  142.1602  163.8507 C.ar    1  UNL1        0.0031
     43 C         142.5357  140.1484  167.6759 C.3     1  UNL1        0.4186
     44 F         142.1181  139.4777  168.9509 F       1  UNL1       -0.1659
     45 F         143.1853  141.2457  168.4658 F       1  UNL1       -0.1659
     46 F         141.8861  139.0510  166.8860 F       1  UNL1       -0.1659
     47 C         144.1308  144.3918  165.1364 C.3     1  UNL1        0.4186
     48 F         144.5106  145.8429  165.1418 F       1  UNL1       -0.1659
     49 F         145.2503  144.0952  166.0896 F       1  UNL1       -0.1659
     50 F         143.0112  144.6884  164.1832 F       1  UNL1       -0.1659
@<TRIPOS>UNITY_ATOM_ATTR
21 1
charge -1
@<TRIPOS>BOND
     1    23    24    1
     2    24     7    1
     3     7     8   ar
     4     8     9   ar
     5     9    10   ar
     6    10    13    1
     7    13    14   ar
     8    14    15   ar
     9    15    16   ar
    10    16    20    1
    11    20    21   ar
    12    20    22   ar
    13    16    17   ar
    14    17    18   ar
    15    18    19    1
    16    10    11   ar
    17    11    12   ar
    18    12     1    1
    19     1     2   ar
    20     2     3   ar
    21     3     4   ar
    22     4    25    1
    23    25    26    1
    24    25    27    1
    25    25    28    1
    26     4     5   ar
    27     5     6   ar
    28     6    29    1
    29    29    30    1
    30    30    31   am
    31    31    32    2
    32    31    33    1
    33    33    34    1
    34    34    37    1
    35    37    38   ar
    36    38    39   ar
    37    39    43    1
    38    43    44    1
    39    43    45    1
    40    43    46    1
    41    39    40   ar
    42    40    41   ar
    43    41    47    1
    44    47    48    1
    45    47    49    1
    46    47    50    1
    47    41    42   ar
    48    34    35    1
    49    35    36    1
    50    12     7   ar
    51     6     1   ar
    52    35    30    1
    53    18    13   ar
    54    42    37   ar
@<TRIPOS>MOLECULE
*****
 50 54 0 0 0
SMALL
GASTEIGER

@<TRIPOS>ATOM
      1 C         140.9228  138.7932  158.1137 C.ar    1  UNL1        0.0197
      2 C         139.9632  137.9358  157.3430 C.ar    1  UNL1        0.0986
      3 N         140.4818  136.8995  156.3905 N.ar    1  UNL1       -0.2399
      4 C         141.9600  136.7207  156.2087 C.ar    1  UNL1        0.1524
      5 C         142.9196  137.5782  156.9794 C.ar    1  UNL1        0.0205
      6 C         142.4010  138.6144  157.9319 C.ar    1  UNL1        0.0008
      7 C         140.1780  141.2353  158.5947 C.ar    1  UNL1        0.1387
      8 C         139.6593  142.2715  159.5472 C.ar    1  UNL1        0.0369
      9 C         139.3669  141.9018  160.9712 C.ar    1  UNL1        0.0031
     10 C         139.5932  140.4960  161.4427 C.ar    1  UNL1       -0.0001
     11 C         140.1118  139.4598  160.4902 C.ar    1  UNL1        0.0030
     12 C         140.4042  139.8295  159.0662 C.ar    1  UNL1        0.0352
     13 C         139.3008  140.1263  162.8668 C.ar    1  UNL1       -0.0039
     14 C         138.7235  138.7798  163.1887 C.ar    1  UNL1       -0.0003
     15 C         138.4311  138.4102  164.6127 C.ar    1  UNL1        0.0011
     16 C         138.7159  139.3870  165.7148 C.ar    1  UNL1        0.0137
     17 C         139.2932  140.7335  165.3929 C.ar    1  UNL1       -0.0031
     18 C         139.5856  141.1032  163.9688 C.ar    1  UNL1       -0.0218
     19 C         140.1628  142.4497  163.6469 C.3     1  UNL1        0.0310
     20 C         138.4235  139.0173  167.1388 C.2     1  UNL1        0.0729
     21 O         139.1635  139.6916  168.2558 O.co2   1  UNL1       -0.5446
     22 O         137.3911  137.9734  167.4459 O.co2   1  UNL1       -0.5446
     23 C         139.3468  141.7503  156.1876 C.3     1  UNL1        0.2525
     24 O         140.4704  141.6050  157.1707 O.3     1  UNL1       -0.4714
     25 C         142.4786  135.6845  155.2562 C.3     1  UNL1        0.4348
     26 F         142.9972  134.6483  154.3037 F       1  UNL1       -0.1644
     27 F         143.8430  136.3037  155.3254 F       1  UNL1       -0.1644
     28 F         141.1142  135.0653  155.1870 F       1  UNL1       -0.1644
     29 C         143.3605  139.4719  158.7026 C.3     1  UNL1        0.1236
     30 N         143.4348  139.3581  160.1965 N.am    1  UNL1       -0.2396
     31 C         143.6155  138.0894  160.9761 C.2     1  UNL1        0.4054
     32 O         143.7538  136.7119  160.3988 O.2     1  UNL1       -0.2262
     33 O         143.6338  138.4402  162.4345 O.3     1  UNL1       -0.4320
     34 C         143.4643  139.9256  162.5560 C.3     1  UNL1        0.2107
     35 C         143.3413  140.4929  161.1729 C.3     1  UNL1        0.1232
     36 C         143.1571  141.9408  160.8269 C.3     1  UNL1        0.0258
     37 C         143.4247  140.7066  163.8360 C.ar    1  UNL1        0.0189
     38 C         143.8092  142.1565  163.8422 C.ar    1  UNL1        0.0031
     39 C         143.7697  142.9375  165.1222 C.ar    1  UNL1        0.0712
     40 C         143.3455  142.2687  166.3960 C.ar    1  UNL1        0.0077
     41 C         142.9610  140.8188  166.3899 C.ar    1  UNL1        0.0712
     42 C         143.0006  140.0378  165.1099 C.ar    1  UNL1        0.0031
     43 C         144.1542  144.3873  165.1283 C.3     1  UNL1        0.4186
     44 F         144.5388  145.8372  165.1344 F       1  UNL1       -0.1659
     45 F         143.0514  144.6840  164.1558 F       1  UNL1       -0.1659
     46 F         145.2571  144.0907  166.1009 F       1  UNL1       -0.1659
     47 C         142.5368  140.1500  167.6638 C.3     1  UNL1        0.4186
     48 F         142.1127  139.4812  168.9377 F       1  UNL1       -0.1659
     49 F         142.0228  138.9800  166.8784 F       1  UNL1       -0.1659
     50 F         143.0509  141.3200  168.4492 F       1  UNL1       -0.1659
@<TRIPOS>UNITY_ATOM_ATTR
21 1
charge -1
@<TRIPOS>BOND
     1    23    24    1
     2    24     7    1
     3     7     8   ar
     4     8     9   ar
     5     9    10   ar
     6    10    13    1
     7    13    14   ar
     8    14    15   ar
     9    15    16   ar
    10    16    20    1
    11    20    21   ar
    12    20    22   ar
    13    16    17   ar
    14    17    18   ar
    15    18    19    1
    16    10    11   ar
    17    11    12   ar
    18    12     1    1
    19     1     2   ar
    20     2     3   ar
    21     3     4   ar
    22     4    25    1
    23    25    26    1
    24    25    27    1
    25    25    28    1
    26     4     5   ar
    27     5     6   ar
    28     6    29    1
    29    29    30    1
    30    30    31   am
    31    31    32    2
    32    31    33    1
    33    33    34    1
    34    34    37    1
    35    37    38   ar
    36    38    39   ar
    37    39    43    1
    38    43    44    1
    39    43    45    1
    40    43    46    1
    41    39    40   ar
    42    40    41   ar
    43    41    47    1
    44    47    48    1
    45    47    49    1
    46    47    50    1
    47    41    42   ar
    48    34    35    1
    49    35    36    1
    50    12     7   ar
    51     6     1   ar
    52    35    30    1
    53    18    13   ar
    54    42    37   ar
@<TRIPOS>MOLECULE
*****
 50 54 0 0 0
SMALL
GASTEIGER

@<TRIPOS>ATOM
      1 C         141.1412  142.0672  158.3119 C.ar    1  UNL1        0.0197
      2 C         142.1225  142.6613  157.3454 C.ar    1  UNL1        0.0986
      3 N         141.8760  144.0239  156.7689 N.ar    1  UNL1       -0.2399
      4 C         140.6483  144.7926  157.1590 C.ar    1  UNL1        0.1524
      5 C         139.6671  144.1984  158.1255 C.ar    1  UNL1        0.0205
      6 C         139.9136  142.8357  158.7020 C.ar    1  UNL1        0.0008
      7 C         141.2607  139.4883  158.0196 C.ar    1  UNL1        0.1387
      8 C         141.5072  138.1257  158.5961 C.ar    1  UNL1        0.0369
      9 C         141.8806  137.9791  160.0414 C.ar    1  UNL1        0.0031
     10 C         142.0076  139.1952  160.9103 C.ar    1  UNL1       -0.0001
     11 C         141.7611  140.5578  160.3338 C.ar    1  UNL1        0.0030
     12 C         141.3877  140.7044  158.8884 C.ar    1  UNL1        0.0352
     13 C         142.3810  139.0486  162.3557 C.ar    1  UNL1       -0.0039
     14 C         141.4955  138.2716  163.2840 C.ar    1  UNL1       -0.0003
     15 C         141.8689  138.1250  164.7294 C.ar    1  UNL1        0.0011
     16 C         143.1279  138.7555  165.2464 C.ar    1  UNL1        0.0137
     17 C         144.0134  139.5326  164.3180 C.ar    1  UNL1       -0.0031
     18 C         143.6400  139.6791  162.8727 C.ar    1  UNL1       -0.0218
     19 C         144.5256  140.4563  161.9443 C.3     1  UNL1        0.0310
     20 C         143.5013  138.6089  166.6917 C.2     1  UNL1        0.0729
     21 O         142.9564  139.5680  167.7081 O.co2   1  UNL1       -0.5446
     22 O         144.4197  137.5033  167.1207 O.co2   1  UNL1       -0.5446
     23 C         139.4565  139.4833  156.1501 C.3     1  UNL1        0.2525
     24 O         140.8873  139.6349  156.5742 O.3     1  UNL1       -0.4714
     25 C         140.4019  146.1552  156.5825 C.3     1  UNL1        0.4348
     26 F         140.1555  147.5179  156.0060 F       1  UNL1       -0.1644
     27 F         141.0875  145.7425  155.3138 F       1  UNL1       -0.1644
     28 F         139.7164  146.5680  157.8512 F       1  UNL1       -0.1644
     29 C         138.9324  142.2416  159.6686 C.3     1  UNL1        0.1236
     30 N         139.1090  142.4547  161.1428 N.am    1  UNL1       -0.2396
     31 C         139.4041  143.7625  161.8154 C.2     1  UNL1        0.4054
     32 O         139.5743  145.0869  161.1320 O.2     1  UNL1       -0.2262
     33 O         139.4991  143.5135  163.2916 O.3     1  UNL1       -0.4320
     34 C         139.2627  142.0517  163.5313 C.3     1  UNL1        0.2107
     35 C         139.0217  141.3974  162.2032 C.3     1  UNL1        0.1232
     36 C         138.7422  139.9413  161.9755 C.3     1  UNL1        0.0258
     37 C         139.2667  141.3650  164.8647 C.ar    1  UNL1        0.0189
     38 C         138.6160  140.0223  165.0189 C.ar    1  UNL1        0.0031
     39 C         138.6200  139.3355  166.3523 C.ar    1  UNL1        0.0712
     40 C         139.2747  139.9914  167.5318 C.ar    1  UNL1        0.0077
     41 C         139.9255  141.3341  167.3777 C.ar    1  UNL1        0.0712
     42 C         139.9215  142.0208  166.0442 C.ar    1  UNL1        0.0031
     43 C         137.9693  137.9928  166.5064 C.3     1  UNL1        0.4186
     44 F         137.3185  136.6502  166.6605 F       1  UNL1       -0.1659
     45 F         138.6941  137.5017  165.2885 F       1  UNL1       -0.1659
     46 F         137.2443  138.4839  167.7244 F       1  UNL1       -0.1659
     47 C         140.5803  141.9900  168.5572 C.3     1  UNL1        0.4186
     48 F         141.2350  142.6458  169.7367 F       1  UNL1       -0.1659
     49 F         139.4992  141.4601  169.4520 F       1  UNL1       -0.1659
     50 F         141.6613  142.5198  167.6625 F       1  UNL1       -0.1659
@<TRIPOS>UNITY_ATOM_ATTR
21 1
charge -1
@<TRIPOS>BOND
     1    23    24    1
     2    24     7    1
     3     7     8   ar
     4     8     9   ar
     5     9    10   ar
     6    10    13    1
     7    13    14   ar
     8    14    15   ar
     9    15    16   ar
    10    16    20    1
    11    20    21   ar
    12    20    22   ar
    13    16    17   ar
    14    17    18   ar
    15    18    19    1
    16    10    11   ar
    17    11    12   ar
    18    12     1    1
    19     1     2   ar
    20     2     3   ar
    21     3     4   ar
    22     4    25    1
    23    25    26    1
    24    25    27    1
    25    25    28    1
    26     4     5   ar
    27     5     6   ar
    28     6    29    1
    29    29    30    1
    30    30    31   am
    31    31    32    2
    32    31    33    1
    33    33    34    1
    34    34    37    1
    35    37    38   ar
    36    38    39   ar
    37    39    43    1
    38    43    44    1
    39    43    45    1
    40    43    46    1
    41    39    40   ar
    42    40    41   ar
    43    41    47    1
    44    47    48    1
    45    47    49    1
    46    47    50    1
    47    41    42   ar
    48    34    35    1
    49    35    36    1
    50    12     7   ar
    51     6     1   ar
    52    35    30    1
    53    18    13   ar
    54    42    37   ar
@<TRIPOS>MOLECULE
*****
 50 54 0 0 0
SMALL
GASTEIGER

@<TRIPOS>ATOM
      1 C         142.9821  142.3107  158.5869 C.ar    1  UNL1        0.0197
      2 C         144.4388  142.4138  158.2443 C.ar    1  UNL1        0.0986
      3 N         145.0167  141.5542  157.1593 N.ar    1  UNL1       -0.2399
      4 C         144.1379  140.5915  156.4169 C.ar    1  UNL1        0.1524
      5 C         142.6812  140.4885  156.7596 C.ar    1  UNL1        0.0205
      6 C         142.1033  141.3481  157.8447 C.ar    1  UNL1        0.0008
      7 C         141.6769  144.4341  159.3203 C.ar    1  UNL1        0.1387
      8 C         141.0991  145.2936  160.4053 C.ar    1  UNL1        0.0369
      9 C         141.2487  144.8894  161.8420 C.ar    1  UNL1        0.0031
     10 C         141.9760  143.6256  162.1937 C.ar    1  UNL1       -0.0001
     11 C         142.5538  142.7660  161.1087 C.ar    1  UNL1        0.0030
     12 C         142.4043  143.1703  159.6720 C.ar    1  UNL1        0.0352
     13 C         142.1256  143.2213  163.6305 C.ar    1  UNL1       -0.0039
     14 C         140.9188  143.1474  164.5183 C.ar    1  UNL1       -0.0003
     15 C         141.0684  142.7432  165.9550 C.ar    1  UNL1        0.0011
     16 C         142.4246  142.4128  166.5039 C.ar    1  UNL1        0.0137
     17 C         143.6314  142.4867  165.6161 C.ar    1  UNL1       -0.0031
     18 C         143.4818  142.8909  164.1794 C.ar    1  UNL1       -0.0218
     19 C         144.6887  142.9648  163.2915 C.3     1  UNL1        0.0310
     20 C         142.5742  142.0085  167.9407 C.2     1  UNL1        0.0729
     21 O         141.6636  140.9704  168.5264 O.co2   1  UNL1       -0.5446
     22 O         143.6343  142.6424  168.7917 O.co2   1  UNL1       -0.5446
     23 C         140.5267  145.8878  157.5000 C.3     1  UNL1        0.2525
     24 O         141.5274  144.8383  157.8835 O.3     1  UNL1       -0.4714
     25 C         144.7157  139.7320  155.3320 C.3     1  UNL1        0.4348
     26 F         145.2936  138.8725  154.2470 F       1  UNL1       -0.1644
     27 F         143.3346  139.2963  154.9416 F       1  UNL1       -0.1644
     28 F         146.0969  140.1678  155.7224 F       1  UNL1       -0.1644
     29 C         140.6466  141.2450  158.1874 C.3     1  UNL1        0.1236
     30 N         140.2172  141.1717  159.6228 N.am    1  UNL1       -0.2396
     31 C         139.1416  141.9971  160.2645 C.2     1  UNL1        0.4054
     32 O         138.3066  143.0407  159.5836 O.2     1  UNL1       -0.2262
     33 O         139.0476  141.5956  161.7067 O.3     1  UNL1       -0.4320
     34 C         140.0651  140.5220  161.9563 C.3     1  UNL1        0.2107
     35 C         140.7879  140.2601  160.6683 C.3     1  UNL1        0.1232
     36 C         141.8883  139.2618  160.4621 C.3     1  UNL1        0.0258
     37 C         140.3158  139.8317  163.2641 C.ar    1  UNL1        0.0189
     38 C         139.1605  139.3684  164.1012 C.ar    1  UNL1        0.0031
     39 C         139.4111  138.6781  165.4090 C.ar    1  UNL1        0.0712
     40 C         140.8171  138.4510  165.8799 C.ar    1  UNL1        0.0077
     41 C         141.9725  138.9144  165.0429 C.ar    1  UNL1        0.0712
     42 C         141.7217  139.6047  163.7350 C.ar    1  UNL1        0.0031
     43 C         138.2559  138.2147  166.2461 C.3     1  UNL1        0.4186
     44 F         137.1006  137.7514  167.0831 F       1  UNL1       -0.1659
     45 F         138.2929  136.8817  165.5593 F       1  UNL1       -0.1659
     46 F         138.2188  139.5479  166.9328 F       1  UNL1       -0.1659
     47 C         143.3784  138.6873  165.5138 C.3     1  UNL1        0.4186
     48 F         144.7844  138.4603  165.9847 F       1  UNL1       -0.1659
     49 F         143.8723  138.8209  164.1037 F       1  UNL1       -0.1659
     50 F         142.8846  138.5537  166.9238 F       1  UNL1       -0.1659
@<TRIPOS>UNITY_ATOM_ATTR
21 1
charge -1
@<TRIPOS>BOND
     1    23    24    1
     2    24     7    1
     3     7     8   ar
     4     8     9   ar
     5     9    10   ar
     6    10    13    1
     7    13    14   ar
     8    14    15   ar
     9    15    16   ar
    10    16    20    1
    11    20    21   ar
    12    20    22   ar
    13    16    17   ar
    14    17    18   ar
    15    18    19    1
    16    10    11   ar
    17    11    12   ar
    18    12     1    1
    19     1     2   ar
    20     2     3   ar
    21     3     4   ar
    22     4    25    1
    23    25    26    1
    24    25    27    1
    25    25    28    1
    26     4     5   ar
    27     5     6   ar
    28     6    29    1
    29    29    30    1
    30    30    31   am
    31    31    32    2
    32    31    33    1
    33    33    34    1
    34    34    37    1
    35    37    38   ar
    36    38    39   ar
    37    39    43    1
    38    43    44    1
    39    43    45    1
    40    43    46    1
    41    39    40   ar
    42    40    41   ar
    43    41    47    1
    44    47    48    1
    45    47    49    1
    46    47    50    1
    47    41    42   ar
    48    34    35    1
    49    35    36    1
    50    12     7   ar
    51     6     1   ar
    52    35    30    1
    53    18    13   ar
    54    42    37   ar
