@<TRIPOS>MOLECULE
*****
 35 38 0 0 0
SMALL
GASTEIGER

@<TRIPOS>ATOM
      1 C         140.6988  139.7682  169.8642 C.3     1  UNL1        0.1459
      2 O         140.2709  139.1412  171.1579 O.3     1  UNL1       -0.3813
      3 H         139.3153  139.2601  171.2744 H       1  UNL1        0.2105
      4 C         139.6863  140.4426  168.9866 C.3     1  UNL1        0.1204
      5 O         137.5895  138.6676  167.7813 O.2     1  UNL1       -0.2701
      6 C         138.6341  139.2951  166.9067 C.2     1  UNL1        0.2469
      7 N         139.6825  140.1826  167.5093 N.am    1  UNL1       -0.2985
      8 H         140.3682  140.5944  166.9352 H       1  UNL1        0.1498
      9 C         138.6303  139.0351  165.4294 C.2     1  UNL1        0.0665
     10 C         138.9071  137.6554  164.9100 C.2     1  UNL1        0.0931
     11 N         138.9033  137.3954  163.4327 N.am    1  UNL1       -0.1740
     12 C         138.6227  138.5150  162.4748 C.2     1  UNL1        0.2687
     13 O         138.6189  138.2550  160.9975 O.2     1  UNL1       -0.2680
     14 C         138.3460  139.8948  162.9942 C.2     1  UNL1        0.0519
     15 C         138.0655  141.0145  162.0363 C.2     1  UNL1        0.0039
     16 C         137.7887  142.3942  162.5557 C.2     1  UNL1       -0.0041
     17 C         137.7925  142.6542  164.0330 C.2     1  UNL1       -0.0214
     18 C         138.0731  141.5345  164.9909 C.3     1  UNL1        0.0526
     19 C         138.3498  140.1548  164.4715 C.2     1  UNL1       -0.0077
     20 C         142.1391  139.7208  169.4480 C.3     1  UNL1        0.1034
     21 N         142.5661  140.3428  168.1516 N.3     1  UNL1       -0.2704
     22 C         142.7341  139.4892  166.9296 C.3     1  UNL1        0.0759
     23 C         143.1610  140.1112  165.6332 C.3     1  UNL1        0.0609
     24 C         143.4199  141.5868  165.5586 C.3     1  UNL1        0.1687
     25 C         143.2519  142.4404  166.7806 C.3     1  UNL1        0.0609
     26 C         142.8249  141.8184  168.0771 C.3     1  UNL1        0.0759
     27 O         143.8469  142.2088  164.2622 O.3     1  UNL1       -0.4790
     28 C         142.9072  143.1101  163.5174 C.ar    1  UNL1        0.1393
     29 C         142.6832  144.5158  163.9906 C.ar    1  UNL1        0.0378
     30 C         141.7436  145.4171  163.2458 C.ar    1  UNL1        0.0154
     31 C         141.0279  144.9128  162.0279 C.ar    1  UNL1        0.0684
     32 CL        140.0882  145.8141  161.2831 Cl      1  UNL1       -0.0814
     33 C         141.2519  143.5071  161.5547 C.ar    1  UNL1        0.0712
     34 CL        140.5362  143.0027  160.3367 Cl      1  UNL1       -0.0813
     35 C         142.1915  142.6058  162.2995 C.ar    1  UNL1        0.0491
@<TRIPOS>BOND
     1     5     6    2
     2     6     7   am
     3     7     4    1
     4     4     1    1
     5     1     2    1
     6     1    20    1
     7    20    21    1
     8    21    22    1
     9    22    23    1
    10    23    24    1
    11    24    27    1
    12    27    28    1
    13    28    29   ar
    14    29    30   ar
    15    30    31   ar
    16    31    32    1
    17    31    33   ar
    18    33    34    1
    19    33    35   ar
    20    24    25    1
    21    25    26    1
    22     6     9    1
    23     9    10    1
    24    10    11    2
    25    11    12    1
    26    12    13    2
    27    12    14    1
    28    14    15    2
    29    15    16    1
    30    16    17    2
    31    17    18    1
    32    18    19    1
    33    26    21    1
    34    19     9    2
    35    35    28   ar
    36    19    14    1
    37     7     8    1
    38     2     3    1
@<TRIPOS>MOLECULE
*****
 35 38 0 0 0
SMALL
GASTEIGER

@<TRIPOS>ATOM
      1 C         137.8568  139.5657  160.6427 C.3     1  UNL1        0.1459
      2 O         136.3909  139.6059  160.3272 O.3     1  UNL1       -0.3813
      3 H         136.2032  140.3701  159.7600 H       1  UNL1        0.2105
      4 C         138.7719  140.6187  160.0914 C.3     1  UNL1        0.1204
      5 O         141.3722  139.3366  159.3202 O.2     1  UNL1       -0.2701
      6 C         141.3310  140.3356  160.4385 C.2     1  UNL1        0.2469
      7 N         140.0309  140.9766  160.8240 N.am    1  UNL1       -0.2985
      8 H         140.0039  141.6322  161.5580 H       1  UNL1        0.1498
      9 C         142.5900  140.6935  161.1711 C.2     1  UNL1        0.0665
     10 C         143.5367  141.7003  160.5880 C.2     1  UNL1        0.0931
     11 N         144.7957  142.0582  161.3207 N.am    1  UNL1       -0.1740
     12 C         145.1081  141.4092  162.6364 C.2     1  UNL1        0.2687
     13 O         146.3671  141.7671  163.3691 O.2     1  UNL1       -0.2680
     14 C         144.1614  140.4023  163.2196 C.2     1  UNL1        0.0519
     15 C         144.4738  139.7533  164.5353 C.2     1  UNL1        0.0039
     16 C         143.5271  138.7465  165.1184 C.2     1  UNL1       -0.0041
     17 C         142.2681  138.3886  164.3858 C.2     1  UNL1       -0.0214
     18 C         141.9557  139.0376  163.0700 C.3     1  UNL1        0.0526
     19 C         142.9024  140.0444  162.4869 C.2     1  UNL1       -0.0077
     20 C         138.4077  138.4725  161.5096 C.3     1  UNL1        0.1034
     21 N         138.4323  138.6379  163.0002 N.3     1  UNL1       -0.2704
     22 C         138.8019  137.4786  163.8774 C.3     1  UNL1        0.0759
     23 C         138.8266  137.6439  165.3680 C.3     1  UNL1        0.0609
     24 C         138.4816  138.9686  165.9815 C.3     1  UNL1        0.1687
     25 C         138.1120  140.1279  165.1043 C.3     1  UNL1        0.0609
     26 C         138.0874  139.9625  163.6136 C.3     1  UNL1        0.0759
     27 O         138.5062  139.1339  167.4721 O.3     1  UNL1       -0.4790
     28 C         139.5367  140.0164  168.1119 C.ar    1  UNL1        0.1393
     29 C         139.3690  140.4540  169.5368 C.ar    1  UNL1        0.0378
     30 C         140.3994  141.3365  170.1766 C.ar    1  UNL1        0.0154
     31 C         141.5976  141.7814  169.3915 C.ar    1  UNL1        0.0684
     32 CL        142.6280  142.6640  170.0313 Cl      1  UNL1       -0.0814
     33 C         141.7653  141.3439  167.9666 C.ar    1  UNL1        0.0712
     34 CL        142.9635  141.7889  167.1815 Cl      1  UNL1       -0.0813
     35 C         140.7348  140.4614  167.3268 C.ar    1  UNL1        0.0491
@<TRIPOS>BOND
     1     5     6    2
     2     6     7   am
     3     7     4    1
     4     4     1    1
     5     1     2    1
     6     1    20    1
     7    20    21    1
     8    21    22    1
     9    22    23    1
    10    23    24    1
    11    24    27    1
    12    27    28    1
    13    28    29   ar
    14    29    30   ar
    15    30    31   ar
    16    31    32    1
    17    31    33   ar
    18    33    34    1
    19    33    35   ar
    20    24    25    1
    21    25    26    1
    22     6     9    1
    23     9    10    1
    24    10    11    2
    25    11    12    1
    26    12    13    2
    27    12    14    1
    28    14    15    2
    29    15    16    1
    30    16    17    2
    31    17    18    1
    32    18    19    1
    33    26    21    1
    34    19     9    2
    35    35    28   ar
    36    19    14    1
    37     7     8    1
    38     2     3    1
@<TRIPOS>MOLECULE
*****
 35 38 0 0 0
SMALL
GASTEIGER

@<TRIPOS>ATOM
      1 C         141.9460  144.9826  158.1502 C.3     1  UNL1        0.1459
      2 O         142.5255  146.3309  157.8404 O.3     1  UNL1       -0.3813
      3 H         143.4866  146.2531  157.7345 H       1  UNL1        0.2105
      4 C         142.8439  143.7850  158.2494 C.3     1  UNL1        0.1204
      5 O         145.3923  142.6039  159.3033 O.2     1  UNL1       -0.2701
      6 C         144.0951  142.3401  160.0091 C.2     1  UNL1        0.2469
      7 N         142.8210  142.9306  159.4821 N.am    1  UNL1       -0.2985
      8 H         141.9697  142.7575  159.9453 H       1  UNL1        0.1498
      9 C         144.0723  141.4857  161.2417 C.2     1  UNL1        0.0665
     10 C         144.0713  139.9908  161.1182 C.2     1  UNL1        0.0931
     11 N         144.0485  139.1364  162.3509 N.am    1  UNL1       -0.1740
     12 C         144.0266  139.7769  163.7071 C.2     1  UNL1        0.2687
     13 O         144.0037  138.9225  164.9397 O.2     1  UNL1       -0.2680
     14 C         144.0275  141.2718  163.8306 C.2     1  UNL1        0.0519
     15 C         144.0055  141.9123  165.1868 C.2     1  UNL1        0.0039
     16 C         144.0065  143.4072  165.3103 C.2     1  UNL1       -0.0041
     17 C         144.0293  144.2616  164.0776 C.2     1  UNL1       -0.0214
     18 C         144.0513  143.6211  162.7215 C.3     1  UNL1        0.0526
     19 C         144.0503  142.1262  162.5980 C.2     1  UNL1       -0.0077
     20 C         140.4685  144.8316  158.3607 C.3     1  UNL1        0.1034
     21 N         139.9234  144.6453  159.7457 N.3     1  UNL1       -0.2704
     22 C         140.1046  145.7221  160.7741 C.3     1  UNL1        0.0759
     23 C         139.5595  145.5358  162.1591 C.3     1  UNL1        0.0609
     24 C         138.8332  144.2727  162.5156 C.3     1  UNL1        0.1687
     25 C         138.6521  143.1959  161.4872 C.3     1  UNL1        0.0609
     26 C         139.1972  143.3823  160.1022 C.3     1  UNL1        0.0759
     27 O         138.2882  144.0864  163.9006 O.3     1  UNL1       -0.4790
     28 C         138.8672  143.0342  164.7992 C.ar    1  UNL1        0.1393
     29 C         140.0478  143.3558  165.6669 C.ar    1  UNL1        0.0378
     30 C         140.6268  142.3036  166.5656 C.ar    1  UNL1        0.0154
     31 C         140.0254  140.9299  166.5966 C.ar    1  UNL1        0.0684
     32 CL        140.6045  139.8777  167.4953 Cl      1  UNL1       -0.0814
     33 C         138.8449  140.6083  165.7289 C.ar    1  UNL1        0.0712
     34 CL        138.2434  139.2345  165.7599 Cl      1  UNL1       -0.0813
     35 C         138.2658  141.6605  164.8302 C.ar    1  UNL1        0.0491
@<TRIPOS>BOND
     1     5     6    2
     2     6     7   am
     3     7     4    1
     4     4     1    1
     5     1     2    1
     6     1    20    1
     7    20    21    1
     8    21    22    1
     9    22    23    1
    10    23    24    1
    11    24    27    1
    12    27    28    1
    13    28    29   ar
    14    29    30   ar
    15    30    31   ar
    16    31    32    1
    17    31    33   ar
    18    33    34    1
    19    33    35   ar
    20    24    25    1
    21    25    26    1
    22     6     9    1
    23     9    10    1
    24    10    11    2
    25    11    12    1
    26    12    13    2
    27    12    14    1
    28    14    15    2
    29    15    16    1
    30    16    17    2
    31    17    18    1
    32    18    19    1
    33    26    21    1
    34    19     9    2
    35    35    28   ar
    36    19    14    1
    37     7     8    1
    38     2     3    1
@<TRIPOS>MOLECULE
*****
 35 38 0 0 0
SMALL
GASTEIGER

@<TRIPOS>ATOM
      1 C         139.7830  145.5996  161.9648 C.3     1  UNL1        0.1459
      2 O         140.3030  146.9483  162.3655 O.3     1  UNL1       -0.3813
      3 H         141.0599  147.1824  161.8058 H       1  UNL1        0.2105
      4 C         140.4389  144.8448  160.8467 C.3     1  UNL1        0.1204
      5 O         142.9314  143.9202  159.4566 O.2     1  UNL1       -0.2701
      6 C         142.2041  142.9949  160.3867 C.2     1  UNL1        0.2469
      7 N         140.9579  143.4572  161.0817 N.am    1  UNL1       -0.2985
      8 H         140.4805  142.8499  161.6921 H       1  UNL1        0.1498
      9 C         142.7231  141.6073  160.6216 C.2     1  UNL1        0.0665
     10 C         142.6418  140.5813  159.5305 C.2     1  UNL1        0.0931
     11 N         143.1608  139.1937  159.7654 N.am    1  UNL1       -0.1740
     12 C         143.7611  138.8321  161.0916 C.2     1  UNL1        0.2687
     13 O         144.2801  137.4445  161.3266 O.2     1  UNL1       -0.2680
     14 C         143.8424  139.8581  162.1829 C.2     1  UNL1        0.0519
     15 C         144.4427  139.4964  163.5091 C.2     1  UNL1        0.0039
     16 C         144.5240  140.5224  164.6003 C.2     1  UNL1       -0.0041
     17 C         144.0050  141.9100  164.3653 C.2     1  UNL1       -0.0214
     18 C         143.4047  142.2716  163.0391 C.3     1  UNL1        0.0526
     19 C         143.3234  141.2457  161.9479 C.2     1  UNL1       -0.0077
     20 C         138.6072  145.0057  162.6823 C.3     1  UNL1        0.1034
     21 N         138.7650  143.7269  163.4502 N.3     1  UNL1       -0.2704
     22 C         137.8923  142.5489  163.1328 C.3     1  UNL1        0.0759
     23 C         138.0501  141.2701  163.9008 C.3     1  UNL1        0.0609
     24 C         139.0805  141.1693  164.9862 C.3     1  UNL1        0.1687
     25 C         139.9531  142.3474  165.3037 C.3     1  UNL1        0.0609
     26 C         139.7953  143.6262  164.5357 C.3     1  UNL1        0.0759
     27 O         139.2382  139.8906  165.7542 O.3     1  UNL1       -0.4790
     28 C         140.1749  139.8290  166.9242 C.ar    1  UNL1        0.1393
     29 C         141.6392  139.5928  166.7010 C.ar    1  UNL1        0.0378
     30 C         142.5759  139.5312  167.8709 C.ar    1  UNL1        0.0154
     31 C         142.0483  139.7058  169.2641 C.ar    1  UNL1        0.0684
     32 CL        142.9850  139.6442  170.4341 Cl      1  UNL1       -0.0814
     33 C         140.5840  139.9421  169.4873 C.ar    1  UNL1        0.0712
     34 CL        140.0562  140.1168  170.8806 Cl      1  UNL1       -0.0813
     35 C         139.6473  140.0037  168.3174 C.ar    1  UNL1        0.0491
@<TRIPOS>BOND
     1     5     6    2
     2     6     7   am
     3     7     4    1
     4     4     1    1
     5     1     2    1
     6     1    20    1
     7    20    21    1
     8    21    22    1
     9    22    23    1
    10    23    24    1
    11    24    27    1
    12    27    28    1
    13    28    29   ar
    14    29    30   ar
    15    30    31   ar
    16    31    32    1
    17    31    33   ar
    18    33    34    1
    19    33    35   ar
    20    24    25    1
    21    25    26    1
    22     6     9    1
    23     9    10    1
    24    10    11    2
    25    11    12    1
    26    12    13    2
    27    12    14    1
    28    14    15    2
    29    15    16    1
    30    16    17    2
    31    17    18    1
    32    18    19    1
    33    26    21    1
    34    19     9    2
    35    35    28   ar
    36    19    14    1
    37     7     8    1
    38     2     3    1
@<TRIPOS>MOLECULE
*****
 35 38 0 0 0
SMALL
GASTEIGER

@<TRIPOS>ATOM
      1 C         141.7311  138.6363  158.3805 C.3     1  UNL1        0.1459
      2 O         142.6419  137.4668  158.1507 O.3     1  UNL1       -0.3813
      3 H         143.5555  137.7808  158.0633 H       1  UNL1        0.2105
      4 C         142.2946  140.0251  158.4417 C.3     1  UNL1        0.1204
      5 O         144.3749  139.0147  160.3526 O.2     1  UNL1       -0.2701
      6 C         143.5254  140.1941  160.7234 C.2     1  UNL1        0.2469
      7 N         142.4853  140.6993  159.7680 N.am    1  UNL1       -0.2985
      8 H         141.9279  141.4734  160.0114 H       1  UNL1        0.1498
      9 C         143.7161  140.8683  162.0497 C.2     1  UNL1        0.0665
     10 C         144.3310  142.2349  162.1149 C.2     1  UNL1        0.0931
     11 N         144.5217  142.9091  163.4412 N.am    1  UNL1       -0.1740
     12 C         144.0976  142.2167  164.7024 C.2     1  UNL1        0.2687
     13 O         144.2883  142.8909  166.0287 O.2     1  UNL1       -0.2680
     14 C         143.4828  140.8500  164.6373 C.2     1  UNL1        0.0519
     15 C         143.0587  140.1575  165.8985 C.2     1  UNL1        0.0039
     16 C         142.4439  138.7909  165.8333 C.2     1  UNL1       -0.0041
     17 C         142.2532  138.1167  164.5070 C.2     1  UNL1       -0.0214
     18 C         142.6772  138.8092  163.2459 C.3     1  UNL1        0.0526
     19 C         143.2920  140.1758  163.3110 C.2     1  UNL1       -0.0077
     20 C         140.2568  138.4170  158.5491 C.3     1  UNL1        0.1034
     21 N         139.5635  138.9006  159.7882 N.3     1  UNL1       -0.2704
     22 C         139.6807  138.1226  161.0653 C.3     1  UNL1        0.0759
     23 C         138.9874  138.6062  162.3044 C.3     1  UNL1        0.0609
     24 C         138.1769  139.8678  162.2664 C.3     1  UNL1        0.1687
     25 C         138.0597  140.6458  160.9893 C.3     1  UNL1        0.0609
     26 C         138.7530  140.1621  159.7502 C.3     1  UNL1        0.0759
     27 O         137.4836  140.3514  163.5056 O.3     1  UNL1       -0.4790
     28 C         138.2342  140.4327  164.8017 C.ar    1  UNL1        0.1393
     29 C         138.1013  139.3351  165.8154 C.ar    1  UNL1        0.0378
     30 C         138.8519  139.4164  167.1116 C.ar    1  UNL1        0.0154
     31 C         139.7353  140.5952  167.3940 C.ar    1  UNL1        0.0684
     32 CL        140.4859  140.6765  168.6902 Cl      1  UNL1       -0.0814
     33 C         139.8682  141.6928  166.3803 C.ar    1  UNL1        0.0712
     34 CL        140.7516  142.8717  166.6627 Cl      1  UNL1       -0.0813
     35 C         139.1176  141.6115  165.0841 C.ar    1  UNL1        0.0491
@<TRIPOS>BOND
     1     5     6    2
     2     6     7   am
     3     7     4    1
     4     4     1    1
     5     1     2    1
     6     1    20    1
     7    20    21    1
     8    21    22    1
     9    22    23    1
    10    23    24    1
    11    24    27    1
    12    27    28    1
    13    28    29   ar
    14    29    30   ar
    15    30    31   ar
    16    31    32    1
    17    31    33   ar
    18    33    34    1
    19    33    35   ar
    20    24    25    1
    21    25    26    1
    22     6     9    1
    23     9    10    1
    24    10    11    2
    25    11    12    1
    26    12    13    2
    27    12    14    1
    28    14    15    2
    29    15    16    1
    30    16    17    2
    31    17    18    1
    32    18    19    1
    33    26    21    1
    34    19     9    2
    35    35    28   ar
    36    19    14    1
    37     7     8    1
    38     2     3    1
@<TRIPOS>MOLECULE
*****
 35 38 0 0 0
SMALL
GASTEIGER

@<TRIPOS>ATOM
      1 C         141.3436  140.7312  169.4380 C.3     1  UNL1        0.1459
      2 O         141.3989  142.0759  170.1005 O.3     1  UNL1       -0.3813
      3 H         142.3247  142.3342  170.2309 H       1  UNL1        0.2105
      4 C         142.6141  140.0142  169.0891 C.3     1  UNL1        0.1204
      5 O         143.2393  142.1250  167.0510 O.2     1  UNL1       -0.2701
      6 C         143.2021  140.6806  166.6478 C.2     1  UNL1        0.2469
      7 N         142.8895  139.6253  167.6668 N.am    1  UNL1       -0.2985
      8 H         142.8651  138.6773  167.4022 H       1  UNL1        0.1498
      9 C         143.4774  140.2917  165.2255 C.2     1  UNL1        0.0665
     10 C         144.5623  140.9842  164.4552 C.2     1  UNL1        0.0931
     11 N         144.8377  140.5952  163.0329 N.am    1  UNL1       -0.1740
     12 C         144.0282  139.5138  162.3809 C.2     1  UNL1        0.2687
     13 O         144.3035  139.1248  160.9586 O.2     1  UNL1       -0.2680
     14 C         142.9432  138.8212  163.1512 C.2     1  UNL1        0.0519
     15 C         142.1337  137.7398  162.4993 C.2     1  UNL1        0.0039
     16 C         141.0488  137.0472  163.2696 C.2     1  UNL1       -0.0041
     17 C         140.7735  137.4362  164.6919 C.2     1  UNL1       -0.0214
     18 C         141.5830  138.5176  165.3438 C.3     1  UNL1        0.0526
     19 C         142.6678  139.2101  164.5735 C.2     1  UNL1       -0.0077
     20 C         140.0178  140.1036  169.1245 C.3     1  UNL1        0.1034
     21 N         139.4456  140.2105  167.7420 N.3     1  UNL1       -0.2704
     22 C         139.8117  141.3722  166.8666 C.3     1  UNL1        0.0759
     23 C         139.2395  141.4791  165.4841 C.3     1  UNL1        0.0609
     24 C         138.3012  140.4243  164.9771 C.3     1  UNL1        0.1687
     25 C         137.9352  139.2626  165.8526 C.3     1  UNL1        0.0609
     26 C         138.5074  139.1557  167.2351 C.3     1  UNL1        0.0759
     27 O         137.7291  140.5312  163.5947 O.3     1  UNL1       -0.4790
     28 C         138.5323  140.0743  162.4131 C.ar    1  UNL1        0.1393
     29 C         138.1732  138.7988  161.7101 C.ar    1  UNL1        0.0378
     30 C         138.9764  138.3419  160.5286 C.ar    1  UNL1        0.0154
     31 C         140.1387  139.1605  160.0500 C.ar    1  UNL1        0.0684
     32 CL        140.9419  138.7036  158.8684 Cl      1  UNL1       -0.0814
     33 C         140.4977  140.4359  160.7530 C.ar    1  UNL1        0.0712
     34 CL        141.6601  141.2546  160.2744 Cl      1  UNL1       -0.0813
     35 C         139.6945  140.8928  161.9346 C.ar    1  UNL1        0.0491
@<TRIPOS>BOND
     1     5     6    2
     2     6     7   am
     3     7     4    1
     4     4     1    1
     5     1     2    1
     6     1    20    1
     7    20    21    1
     8    21    22    1
     9    22    23    1
    10    23    24    1
    11    24    27    1
    12    27    28    1
    13    28    29   ar
    14    29    30   ar
    15    30    31   ar
    16    31    32    1
    17    31    33   ar
    18    33    34    1
    19    33    35   ar
    20    24    25    1
    21    25    26    1
    22     6     9    1
    23     9    10    1
    24    10    11    2
    25    11    12    1
    26    12    13    2
    27    12    14    1
    28    14    15    2
    29    15    16    1
    30    16    17    2
    31    17    18    1
    32    18    19    1
    33    26    21    1
    34    19     9    2
    35    35    28   ar
    36    19    14    1
    37     7     8    1
    38     2     3    1
@<TRIPOS>MOLECULE
*****
 35 38 0 0 0
SMALL
GASTEIGER

@<TRIPOS>ATOM
      1 C         140.0984  140.3451  169.6013 C.3     1  UNL1        0.1459
      2 O         140.5447  139.4955  170.7541 O.3     1  UNL1       -0.3813
      3 H         140.0562  138.6575  170.7462 H       1  UNL1        0.2105
      4 C         139.0448  139.8398  168.6607 C.3     1  UNL1        0.1204
      5 O         137.2067  138.2673  166.8862 O.2     1  UNL1       -0.2701
      6 C         138.4281  138.9205  166.3103 C.2     1  UNL1        0.2469
      7 N         139.3471  139.7067  167.1975 N.am    1  UNL1       -0.2985
      8 H         140.1487  140.1354  166.8195 H       1  UNL1        0.1498
      9 C         138.7304  138.7875  164.8471 C.2     1  UNL1        0.0665
     10 C         139.3087  137.5103  164.3138 C.2     1  UNL1        0.0931
     11 N         139.6109  137.3773  162.8506 N.am    1  UNL1       -0.1740
     12 C         139.3349  138.5214  161.9207 C.2     1  UNL1        0.2687
     13 O         139.6372  138.3884  160.4575 O.2     1  UNL1       -0.2680
     14 C         138.7566  139.7987  162.4540 C.2     1  UNL1        0.0519
     15 C         138.4807  140.9428  161.5241 C.2     1  UNL1        0.0039
     16 C         137.9024  142.2199  162.0574 C.2     1  UNL1       -0.0041
     17 C         137.6001  142.3530  163.5205 C.2     1  UNL1       -0.0214
     18 C         137.8761  141.2089  164.4505 C.3     1  UNL1        0.0526
     19 C         138.4544  139.9317  163.9172 C.2     1  UNL1       -0.0077
     20 C         140.7057  141.7002  169.3890 C.3     1  UNL1        0.1034
     21 N         141.2835  142.0622  168.0530 N.3     1  UNL1       -0.2704
     22 C         142.7132  141.7335  167.7401 C.3     1  UNL1        0.0759
     23 C         143.2909  142.0955  166.4041 C.3     1  UNL1        0.0609
     24 C         142.4390  142.7863  165.3808 C.3     1  UNL1        0.1687
     25 C         141.0093  143.1150  165.6936 C.3     1  UNL1        0.0609
     26 C         140.4315  142.7529  167.0298 C.3     1  UNL1        0.0759
     27 O         143.0167  143.1483  164.0447 O.3     1  UNL1       -0.4790
     28 C         143.0996  142.1166  162.9590 C.ar    1  UNL1        0.1393
     29 C         144.1133  141.0146  163.0474 C.ar    1  UNL1        0.0378
     30 C         144.1962  139.9829  161.9617 C.ar    1  UNL1        0.0154
     31 C         143.2654  140.0533  160.7876 C.ar    1  UNL1        0.0684
     32 CL        143.3483  139.0216  159.7018 Cl      1  UNL1       -0.0814
     33 C         142.2517  141.1553  160.6992 C.ar    1  UNL1        0.0712
     34 CL        141.3208  141.2257  159.5250 Cl      1  UNL1       -0.0813
     35 C         142.1688  142.1870  161.7849 C.ar    1  UNL1        0.0491
@<TRIPOS>BOND
     1     5     6    2
     2     6     7   am
     3     7     4    1
     4     4     1    1
     5     1     2    1
     6     1    20    1
     7    20    21    1
     8    21    22    1
     9    22    23    1
    10    23    24    1
    11    24    27    1
    12    27    28    1
    13    28    29   ar
    14    29    30   ar
    15    30    31   ar
    16    31    32    1
    17    31    33   ar
    18    33    34    1
    19    33    35   ar
    20    24    25    1
    21    25    26    1
    22     6     9    1
    23     9    10    1
    24    10    11    2
    25    11    12    1
    26    12    13    2
    27    12    14    1
    28    14    15    2
    29    15    16    1
    30    16    17    2
    31    17    18    1
    32    18    19    1
    33    26    21    1
    34    19     9    2
    35    35    28   ar
    36    19    14    1
    37     7     8    1
    38     2     3    1
@<TRIPOS>MOLECULE
*****
 35 38 0 0 0
SMALL
GASTEIGER

@<TRIPOS>ATOM
      1 C         139.6073  138.4109  160.4207 C.3     1  UNL1        0.1459
      2 O         139.3510  138.7978  158.9943 O.3     1  UNL1       -0.3813
      3 H         140.1968  138.9254  158.5369 H       1  UNL1        0.2105
      4 C         141.0154  138.2802  160.9210 C.3     1  UNL1        0.1204
      5 O         143.4381  139.9278  160.2761 O.2     1  UNL1       -0.2701
      6 C         142.7588  140.0810  161.6047 C.2     1  UNL1        0.2469
      7 N         141.5475  139.2572  161.9271 N.am    1  UNL1       -0.2985
      8 H         141.1016  139.3578  162.7991 H       1  UNL1        0.1498
      9 C         143.2909  141.0580  162.6109 C.2     1  UNL1        0.0665
     10 C         144.6474  140.8479  163.2157 C.2     1  UNL1        0.0931
     11 N         145.1795  141.8249  164.2218 N.am    1  UNL1       -0.1740
     12 C         144.3551  143.0120  164.6232 C.2     1  UNL1        0.2687
     13 O         144.8872  143.9890  165.6293 O.2     1  UNL1       -0.2680
     14 C         142.9986  143.2222  164.0184 C.2     1  UNL1        0.0519
     15 C         142.1742  144.4093  164.4198 C.2     1  UNL1        0.0039
     16 C         140.8177  144.6194  163.8150 C.2     1  UNL1       -0.0041
     17 C         140.2856  143.6424  162.8088 C.2     1  UNL1       -0.0214
     18 C         141.1100  142.4553  162.4074 C.3     1  UNL1        0.0526
     19 C         142.4665  142.2452  163.0122 C.2     1  UNL1       -0.0077
     20 C         138.4555  138.1546  161.3468 C.3     1  UNL1        0.1034
     21 N         138.5346  138.5891  162.7802 N.3     1  UNL1       -0.2704
     22 C         138.9678  137.6158  163.8362 C.3     1  UNL1        0.0759
     23 C         139.0469  138.0504  165.2697 C.3     1  UNL1        0.0609
     24 C         138.6930  139.4583  165.6472 C.3     1  UNL1        0.1687
     25 C         138.2598  140.4316  164.5913 C.3     1  UNL1        0.0609
     26 C         138.1807  139.9970  163.1577 C.3     1  UNL1        0.0759
     27 O         138.7721  139.8929  167.0807 O.3     1  UNL1       -0.4790
     28 C         140.0325  140.5118  167.6082 C.ar    1  UNL1        0.1393
     29 C         140.5707  141.7652  166.9844 C.ar    1  UNL1        0.0378
     30 C         141.8311  142.3842  167.5120 C.ar    1  UNL1        0.0154
     31 C         142.5533  141.7497  168.6634 C.ar    1  UNL1        0.0684
     32 CL        143.8137  142.3686  169.1910 Cl      1  UNL1       -0.0814
     33 C         142.0151  140.4963  169.2873 C.ar    1  UNL1        0.0712
     34 CL        142.7373  139.8617  170.4388 Cl      1  UNL1       -0.0813
     35 C         140.7547  139.8774  168.7597 C.ar    1  UNL1        0.0491
@<TRIPOS>BOND
     1     5     6    2
     2     6     7   am
     3     7     4    1
     4     4     1    1
     5     1     2    1
     6     1    20    1
     7    20    21    1
     8    21    22    1
     9    22    23    1
    10    23    24    1
    11    24    27    1
    12    27    28    1
    13    28    29   ar
    14    29    30   ar
    15    30    31   ar
    16    31    32    1
    17    31    33   ar
    18    33    34    1
    19    33    35   ar
    20    24    25    1
    21    25    26    1
    22     6     9    1
    23     9    10    1
    24    10    11    2
    25    11    12    1
    26    12    13    2
    27    12    14    1
    28    14    15    2
    29    15    16    1
    30    16    17    2
    31    17    18    1
    32    18    19    1
    33    26    21    1
    34    19     9    2
    35    35    28   ar
    36    19    14    1
    37     7     8    1
    38     2     3    1
@<TRIPOS>MOLECULE
*****
 35 38 0 0 0
SMALL
GASTEIGER

@<TRIPOS>ATOM
      1 C         144.5338  142.3772  159.1253 C.3     1  UNL1        0.1459
      2 O         144.5894  143.2542  157.9097 O.3     1  UNL1       -0.3813
      3 H         144.2032  142.7843  157.1541 H       1  UNL1        0.2105
      4 C         143.9405  141.0026  159.0320 C.3     1  UNL1        0.1204
      5 O         143.3582  138.0739  159.3210 O.2     1  UNL1       -0.2701
      6 C         142.6848  139.0651  160.2233 C.2     1  UNL1        0.2469
      7 N         142.9759  140.5294  160.0787 N.am    1  UNL1       -0.2985
      8 H         142.5339  141.1800  160.6709 H       1  UNL1        0.1498
      9 C         141.7203  138.5919  161.2700 C.2     1  UNL1        0.0665
     10 C         140.3431  138.1476  160.8750 C.2     1  UNL1        0.0931
     11 N         139.3786  137.6744  161.9217 N.am    1  UNL1       -0.1740
     12 C         139.7911  137.6455  163.3636 C.2     1  UNL1        0.2687
     13 O         138.8266  137.1723  164.4103 O.2     1  UNL1       -0.2680
     14 C         141.1683  138.0898  163.7587 C.2     1  UNL1        0.0519
     15 C         141.5809  138.0609  165.2005 C.2     1  UNL1        0.0039
     16 C         142.9580  138.5052  165.5956 C.2     1  UNL1       -0.0041
     17 C         143.9226  138.9784  164.5488 C.2     1  UNL1       -0.0214
     18 C         143.5100  139.0073  163.1070 C.3     1  UNL1        0.0526
     19 C         142.1329  138.5630  162.7119 C.2     1  UNL1       -0.0077
     20 C         145.0716  142.8746  160.4343 C.3     1  UNL1        0.1034
     21 N         144.1523  143.0427  161.6075 N.3     1  UNL1       -0.2704
     22 C         142.8413  143.7516  161.4377 C.3     1  UNL1        0.0759
     23 C         141.9220  143.9196  162.6109 C.3     1  UNL1        0.0609
     24 C         142.3136  143.3788  163.9542 C.3     1  UNL1        0.1687
     25 C         143.6246  142.6699  164.1240 C.3     1  UNL1        0.0609
     26 C         144.5439  142.5018  162.9507 C.3     1  UNL1        0.0759
     27 O         141.3943  143.5469  165.1274 O.3     1  UNL1       -0.4790
     28 C         140.5861  142.3831  165.6197 C.ar    1  UNL1        0.1393
     29 C         139.4838  141.8227  164.7706 C.ar    1  UNL1        0.0378
     30 C         138.6756  140.6589  165.2629 C.ar    1  UNL1        0.0154
     31 C         138.9696  140.0555  166.6043 C.ar    1  UNL1        0.0684
     32 CL        138.1614  138.8917  167.0966 Cl      1  UNL1       -0.0814
     33 C         140.0719  140.6158  167.4534 C.ar    1  UNL1        0.0712
     34 CL        140.3660  140.0124  168.7948 Cl      1  UNL1       -0.0813
     35 C         140.8801  141.7796  166.9611 C.ar    1  UNL1        0.0491
@<TRIPOS>BOND
     1     5     6    2
     2     6     7   am
     3     7     4    1
     4     4     1    1
     5     1     2    1
     6     1    20    1
     7    20    21    1
     8    21    22    1
     9    22    23    1
    10    23    24    1
    11    24    27    1
    12    27    28    1
    13    28    29   ar
    14    29    30   ar
    15    30    31   ar
    16    31    32    1
    17    31    33   ar
    18    33    34    1
    19    33    35   ar
    20    24    25    1
    21    25    26    1
    22     6     9    1
    23     9    10    1
    24    10    11    2
    25    11    12    1
    26    12    13    2
    27    12    14    1
    28    14    15    2
    29    15    16    1
    30    16    17    2
    31    17    18    1
    32    18    19    1
    33    26    21    1
    34    19     9    2
    35    35    28   ar
    36    19    14    1
    37     7     8    1
    38     2     3    1
