@<TRIPOS>MOLECULE
*****
 28 31 0 0 0
SMALL
GASTEIGER

@<TRIPOS>ATOM
      1 C         142.3597  144.4698  163.3727 C.2     1  UNL1        0.3178
      2 N         143.3815  144.5857  162.2807 N.2     1  UNL1        0.0095
      3 C         144.5341  143.6273  162.2273 C.2     1  UNL1        0.4717
      4 N         144.6649  142.5530  163.2659 N.2     1  UNL1        0.0158
      5 C         143.6431  142.4370  164.3579 C.2     1  UNL1        0.3712
      6 N         143.5101  141.4873  165.5112 N.2     1  UNL1       -0.0378
      7 C         142.2752  141.8588  166.2775 C.2     1  UNL1        0.1900
      8 C         141.6451  143.0381  165.5977 C.2     1  UNL1        0.0447
      9 C         142.4906  143.3955  164.4113 C.3     1  UNL1        0.2425
     10 C         141.7608  141.1715  167.5076 C.ar    1  UNL1        0.0427
     11 C         140.3699  141.4492  167.9957 C.ar    1  UNL1        0.0037
     12 C         139.8555  140.7619  169.2257 C.ar    1  UNL1        0.0001
     13 C         140.7321  139.7970  169.9678 C.ar    1  UNL1        0.0000
     14 C         142.1230  139.5194  169.4797 C.ar    1  UNL1        0.0001
     15 C         142.6374  140.2066  168.2497 C.ar    1  UNL1        0.0037
     16 N         141.2071  145.4283  163.4261 N.pl3   1  UNL1       -0.2212
     17 H         141.2450  146.2111  164.0219 H       1  UNL1        0.2921
     18 C         139.9966  145.1939  162.5719 C.3     1  UNL1        0.1816
     19 C         139.1013  144.0217  162.8452 C.ar    1  UNL1        0.0198
     20 C         138.4408  143.8787  164.1843 C.ar    1  UNL1       -0.0004
     21 C         137.5456  142.7066  164.4577 C.ar    1  UNL1       -0.0002
     22 C         137.3108  141.6776  163.3919 C.ar    1  UNL1       -0.0000
     23 C         137.9713  141.8206  162.0527 C.ar    1  UNL1       -0.0002
     24 C         138.8666  142.9927  161.7794 C.ar    1  UNL1       -0.0004
     25 C         139.6813  146.1316  161.4444 C.3     1  UNL1        0.0829
     26 O         141.7664  145.5394  160.0119 O.3     1  UNL1       -0.3818
     27 C         140.3218  145.9332  160.1026 C.3     1  UNL1        0.1417
     28 H         142.0202  145.4535  159.0796 H       1  UNL1        0.2104
@<TRIPOS>BOND
     1    26    27    1
     2    27    25    1
     3    18    25    1
     4    18    16    1
     5    16     1    1
     6     1     2    2
     7     2     3    1
     8     3     4    2
     9     4     5    1
    10     5     6    2
    11     6     7    1
    12     7    10    1
    13    10    11   ar
    14    11    12   ar
    15    12    13   ar
    16    13    14   ar
    17    14    15   ar
    18     7     8    2
    19     8     9    1
    20    18    19    1
    21    19    20   ar
    22    20    21   ar
    23    21    22   ar
    24    22    23   ar
    25    23    24   ar
    26     9     1    1
    27    24    19   ar
    28     9     5    1
    29    15    10   ar
    30    26    28    1
    31    16    17    1
@<TRIPOS>MOLECULE
*****
 28 31 0 0 0
SMALL
GASTEIGER

@<TRIPOS>ATOM
      1 C         138.6904  143.3229  163.0171 C.2     1  UNL1        0.3178
      2 N         137.7594  142.4966  162.1804 N.2     1  UNL1        0.0095
      3 C         137.3271  141.1411  162.6556 C.2     1  UNL1        0.4717
      4 N         137.8260  140.6120  163.9675 N.2     1  UNL1        0.0158
      5 C         138.7570  141.4384  164.8043 C.2     1  UNL1        0.3712
      6 N         139.4086  141.1828  166.1309 N.2     1  UNL1       -0.0378
      7 C         140.2436  142.3804  166.4757 C.2     1  UNL1        0.1900
      8 C         140.1080  143.3760  165.3620 C.2     1  UNL1        0.0447
      9 C         139.1893  142.7939  164.3290 C.3     1  UNL1        0.2425
     10 C         141.0692  142.5520  167.7163 C.ar    1  UNL1        0.0427
     11 C         140.4633  143.1716  168.9406 C.ar    1  UNL1        0.0037
     12 C         141.2889  143.3432  170.1811 C.ar    1  UNL1        0.0001
     13 C         142.7203  142.8952  170.1973 C.ar    1  UNL1        0.0000
     14 C         143.3262  142.2756  168.9730 C.ar    1  UNL1        0.0001
     15 C         142.5006  142.1040  167.7325 C.ar    1  UNL1        0.0037
     16 N         139.1227  144.6785  162.5419 N.pl3   1  UNL1       -0.2212
     17 H         138.5499  145.4626  162.7037 H       1  UNL1        0.2921
     18 C         140.4278  144.8392  161.8201 C.3     1  UNL1        0.1816
     19 C         141.7094  144.4408  162.4901 C.ar    1  UNL1        0.0198
     20 C         142.3487  143.1238  162.1633 C.ar    1  UNL1       -0.0004
     21 C         143.6303  142.7255  162.8333 C.ar    1  UNL1       -0.0002
     22 C         144.2725  143.6441  163.8300 C.ar    1  UNL1       -0.0000
     23 C         143.6332  144.9611  164.1569 C.ar    1  UNL1       -0.0002
     24 C         142.3517  145.3595  163.4869 C.ar    1  UNL1       -0.0004
     25 C         140.4513  145.3982  160.4284 C.3     1  UNL1        0.0829
     26 O         139.0006  143.4687  159.4677 O.3     1  UNL1       -0.3818
     27 C         140.0269  144.5448  159.2701 C.3     1  UNL1        0.1417
     28 H         138.8419  143.0148  158.6253 H       1  UNL1        0.2104
@<TRIPOS>BOND
     1    26    27    1
     2    27    25    1
     3    18    25    1
     4    18    16    1
     5    16     1    1
     6     1     2    2
     7     2     3    1
     8     3     4    2
     9     4     5    1
    10     5     6    2
    11     6     7    1
    12     7    10    1
    13    10    11   ar
    14    11    12   ar
    15    12    13   ar
    16    13    14   ar
    17    14    15   ar
    18     7     8    2
    19     8     9    1
    20    18    19    1
    21    19    20   ar
    22    20    21   ar
    23    21    22   ar
    24    22    23   ar
    25    23    24   ar
    26     9     1    1
    27    24    19   ar
    28     9     5    1
    29    15    10   ar
    30    26    28    1
    31    16    17    1
@<TRIPOS>MOLECULE
*****
 28 31 0 0 0
SMALL
GASTEIGER

@<TRIPOS>ATOM
      1 C         137.8373  142.0996  163.4794 C.2     1  UNL1        0.3178
      2 N         137.6468  143.3685  162.7026 N.2     1  UNL1        0.0095
      3 C         138.3259  144.6296  163.1480 C.2     1  UNL1        0.4717
      4 N         139.1956  144.6218  164.3702 N.2     1  UNL1        0.0158
      5 C         139.3861  143.3528  165.1470 C.2     1  UNL1        0.3712
      6 N         140.1781  143.0414  166.3822 N.2     1  UNL1       -0.0378
      7 C         139.9884  141.5878  166.7002 C.2     1  UNL1        0.1900
      8 C         139.0792  141.0009  165.6616 C.2     1  UNL1        0.0447
      9 C         138.7070  142.0917  164.7016 C.3     1  UNL1        0.2425
     10 C         140.6005  140.8507  167.8544 C.ar    1  UNL1        0.0427
     11 C         141.9289  140.1732  167.6919 C.ar    1  UNL1        0.0037
     12 C         142.5409  139.4361  168.8460 C.ar    1  UNL1        0.0001
     13 C         141.8246  139.3764  170.1626 C.ar    1  UNL1        0.0000
     14 C         140.4962  140.0539  170.3250 C.ar    1  UNL1        0.0001
     15 C         139.8842  140.7910  169.1709 C.ar    1  UNL1        0.0037
     16 N         137.1582  140.8384  163.0341 N.pl3   1  UNL1       -0.2212
     17 H         136.2076  140.6908  163.2436 H       1  UNL1        0.2921
     18 C         137.9274  139.8021  162.2696 C.3     1  UNL1        0.1816
     19 C         139.0650  139.0770  162.9255 C.ar    1  UNL1        0.0198
     20 C         140.4802  139.4196  162.5650 C.ar    1  UNL1       -0.0004
     21 C         141.6177  138.6945  163.2209 C.ar    1  UNL1       -0.0002
     22 C         141.3401  137.6269  164.2372 C.ar    1  UNL1       -0.0000
     23 C         139.9249  137.2843  164.5977 C.ar    1  UNL1       -0.0002
     24 C         138.7874  138.0093  163.9418 C.ar    1  UNL1       -0.0004
     25 C         137.5591  139.4910  160.8492 C.3     1  UNL1        0.0829
     26 O         138.3274  141.8465  160.0673 O.3     1  UNL1       -0.3818
     27 C         137.9593  140.4278  159.7482 C.3     1  UNL1        0.1417
     28 H         138.5589  142.3125  159.2486 H       1  UNL1        0.2104
@<TRIPOS>BOND
     1    26    27    1
     2    27    25    1
     3    18    25    1
     4    18    16    1
     5    16     1    1
     6     1     2    2
     7     2     3    1
     8     3     4    2
     9     4     5    1
    10     5     6    2
    11     6     7    1
    12     7    10    1
    13    10    11   ar
    14    11    12   ar
    15    12    13   ar
    16    13    14   ar
    17    14    15   ar
    18     7     8    2
    19     8     9    1
    20    18    19    1
    21    19    20   ar
    22    20    21   ar
    23    21    22   ar
    24    22    23   ar
    25    23    24   ar
    26     9     1    1
    27    24    19   ar
    28     9     5    1
    29    15    10   ar
    30    26    28    1
    31    16    17    1
@<TRIPOS>MOLECULE
*****
 28 31 0 0 0
SMALL
GASTEIGER

@<TRIPOS>ATOM
      1 C         143.0092  143.9260  162.0713 C.2     1  UNL1        0.3178
      2 N         143.8074  143.3826  160.9234 N.2     1  UNL1        0.0095
      3 C         144.6455  142.1525  161.1086 C.2     1  UNL1        0.4717
      4 N         144.6854  141.4657  162.4415 N.2     1  UNL1        0.0158
      5 C         143.8871  142.0091  163.5894 C.2     1  UNL1        0.3712
      6 N         143.7297  141.5502  165.0087 N.2     1  UNL1       -0.0378
      7 C         142.7942  142.4968  165.7008 C.2     1  UNL1        0.1900
      8 C         142.3736  143.5407  164.7092 C.2     1  UNL1        0.0447
      9 C         143.0490  143.2392  163.4042 C.3     1  UNL1        0.2425
     10 C         142.3564  142.4140  167.1332 C.ar    1  UNL1        0.0427
     11 C         143.3787  142.2931  168.2241 C.ar    1  UNL1        0.0037
     12 C         142.9408  142.2103  169.6564 C.ar    1  UNL1        0.0001
     13 C         141.4806  142.2484  169.9977 C.ar    1  UNL1        0.0000
     14 C         140.4583  142.3694  168.9067 C.ar    1  UNL1        0.0001
     15 C         140.8962  142.4522  167.4745 C.ar    1  UNL1        0.0037
     16 N         142.1710  145.1562  161.8861 N.pl3   1  UNL1       -0.2212
     17 H         142.5657  146.0467  162.0287 H       1  UNL1        0.2921
     18 C         140.7316  145.0294  161.4838 C.3     1  UNL1        0.1816
     19 C         139.7233  144.5021  162.4614 C.ar    1  UNL1        0.0198
     20 C         138.8440  143.3475  162.0825 C.ar    1  UNL1       -0.0004
     21 C         137.8357  142.8202  163.0599 C.ar    1  UNL1       -0.0002
     22 C         137.7068  143.4477  164.4162 C.ar    1  UNL1       -0.0000
     23 C         138.5861  144.6024  164.7951 C.ar    1  UNL1       -0.0002
     24 C         139.5943  145.1296  163.8177 C.ar    1  UNL1       -0.0004
     25 C         140.3004  145.4298  160.1041 C.3     1  UNL1        0.0829
     26 O         142.4486  144.9665  158.7182 O.3     1  UNL1       -0.3818
     27 C         140.9670  144.8241  158.9046 C.3     1  UNL1        0.1417
     28 H         142.7157  144.5207  157.8992 H       1  UNL1        0.2104
@<TRIPOS>BOND
     1    26    27    1
     2    27    25    1
     3    18    25    1
     4    18    16    1
     5    16     1    1
     6     1     2    2
     7     2     3    1
     8     3     4    2
     9     4     5    1
    10     5     6    2
    11     6     7    1
    12     7    10    1
    13    10    11   ar
    14    11    12   ar
    15    12    13   ar
    16    13    14   ar
    17    14    15   ar
    18     7     8    2
    19     8     9    1
    20    18    19    1
    21    19    20   ar
    22    20    21   ar
    23    21    22   ar
    24    22    23   ar
    25    23    24   ar
    26     9     1    1
    27    24    19   ar
    28     9     5    1
    29    15    10   ar
    30    26    28    1
    31    16    17    1
@<TRIPOS>MOLECULE
*****
 28 31 0 0 0
SMALL
GASTEIGER

@<TRIPOS>ATOM
      1 C         143.9217  139.9097  163.8176 C.2     1  UNL1        0.3178
      2 N         145.0092  140.5016  162.9709 N.2     1  UNL1        0.0095
      3 C         145.5519  141.8628  163.2909 C.2     1  UNL1        0.4717
      4 N         145.0071  142.6321  164.4576 N.2     1  UNL1        0.0158
      5 C         143.9196  142.0403  165.3044 C.2     1  UNL1        0.3712
      6 N         143.1910  142.5584  166.5088 N.2     1  UNL1       -0.0378
      7 C         142.1980  141.5173  166.9332 C.2     1  UNL1        0.1900
      8 C         142.3128  140.3558  165.9910 C.2     1  UNL1        0.0447
      9 C         143.3769  140.6791  164.9843 C.3     1  UNL1        0.2425
     10 C         141.2555  141.6198  168.0957 C.ar    1  UNL1        0.0427
     11 C         141.2446  142.8557  168.9457 C.ar    1  UNL1        0.0037
     12 C         140.3022  142.9581  170.1081 C.ar    1  UNL1        0.0001
     13 C         139.3707  141.8247  170.4206 C.ar    1  UNL1        0.0000
     14 C         139.3817  140.5888  169.5707 C.ar    1  UNL1        0.0001
     15 C         140.3241  140.4864  168.4083 C.ar    1  UNL1        0.0037
     16 N         143.3789  138.5484  163.4976 N.pl3   1  UNL1       -0.2212
     17 H         143.8896  137.7441  163.7454 H       1  UNL1        0.2921
     18 C         142.0579  138.4127  162.8000 C.3     1  UNL1        0.1816
     19 C         140.7831  138.6409  163.5569 C.ar    1  UNL1        0.0198
     20 C         140.3026  137.6173  164.5425 C.ar    1  UNL1       -0.0004
     21 C         139.0278  137.8454  165.2994 C.ar    1  UNL1       -0.0002
     22 C         138.2336  139.0971  165.0708 C.ar    1  UNL1       -0.0000
     23 C         138.7142  140.1207  164.0852 C.ar    1  UNL1       -0.0002
     24 C         139.9889  139.8926  163.3283 C.ar    1  UNL1       -0.0004
     25 C         142.0117  138.0488  161.3456 C.3     1  UNL1        0.0829
     26 O         144.4838  138.5349  160.7112 O.3     1  UNL1       -0.3818
     27 C         143.2704  137.6567  160.6302 C.3     1  UNL1        0.1417
     28 H         145.2044  138.1390  160.1965 H       1  UNL1        0.2104
@<TRIPOS>BOND
     1    26    27    1
     2    27    25    1
     3    18    25    1
     4    18    16    1
     5    16     1    1
     6     1     2    2
     7     2     3    1
     8     3     4    2
     9     4     5    1
    10     5     6    2
    11     6     7    1
    12     7    10    1
    13    10    11   ar
    14    11    12   ar
    15    12    13   ar
    16    13    14   ar
    17    14    15   ar
    18     7     8    2
    19     8     9    1
    20    18    19    1
    21    19    20   ar
    22    20    21   ar
    23    21    22   ar
    24    22    23   ar
    25    23    24   ar
    26     9     1    1
    27    24    19   ar
    28     9     5    1
    29    15    10   ar
    30    26    28    1
    31    16    17    1
@<TRIPOS>MOLECULE
*****
 28 31 0 0 0
SMALL
GASTEIGER

@<TRIPOS>ATOM
      1 C         139.3095  139.0661  163.9194 C.2     1  UNL1        0.3178
      2 N         139.6525  137.8515  163.1088 N.2     1  UNL1        0.0095
      3 C         140.8784  137.0522  163.4375 C.2     1  UNL1        0.4717
      4 N         141.7615  137.4675  164.5767 N.2     1  UNL1        0.0158
      5 C         141.4185  138.6821  165.3872 C.2     1  UNL1        0.3712
      6 N         142.0939  139.3301  166.5594 N.2     1  UNL1       -0.0378
      7 C         141.2853  140.5299  166.9552 C.2     1  UNL1        0.1900
      8 C         140.1102  140.6235  166.0276 C.2     1  UNL1        0.0447
      9 C         140.1926  139.4814  165.0586 C.3     1  UNL1        0.2425
     10 C         141.5972  141.4710  168.0809 C.ar    1  UNL1        0.0427
     11 C         140.5509  142.4282  168.5700 C.ar    1  UNL1        0.0037
     12 C         140.8628  143.3692  169.6956 C.ar    1  UNL1        0.0001
     13 C         142.2209  143.3530  170.3323 C.ar    1  UNL1        0.0000
     14 C         143.2671  142.3959  169.8432 C.ar    1  UNL1        0.0001
     15 C         142.9553  141.4549  168.7176 C.ar    1  UNL1        0.0037
     16 N         138.0835  139.8655  163.5907 N.pl3   1  UNL1       -0.2212
     17 H         137.2051  139.5830  163.9339 H       1  UNL1        0.2921
     18 C         138.1960  141.0953  162.7393 C.3     1  UNL1        0.1816
     19 C         138.6104  142.3987  163.3553 C.ar    1  UNL1        0.0198
     20 C         137.7415  143.0485  164.3910 C.ar    1  UNL1       -0.0004
     21 C         138.1558  144.3519  165.0070 C.ar    1  UNL1       -0.0002
     22 C         139.4390  145.0054  164.5873 C.ar    1  UNL1       -0.0000
     23 C         140.3079  144.3556  163.5516 C.ar    1  UNL1       -0.0002
     24 C         139.8936  143.0523  162.9356 C.ar    1  UNL1       -0.0004
     25 C         137.8941  141.0216  161.2718 C.3     1  UNL1        0.0829
     26 O         137.0069  138.5811  161.3541 O.3     1  UNL1       -0.3818
     27 C         137.6952  139.6888  160.6130 C.3     1  UNL1        0.1417
     28 H         136.9608  137.7939  160.7892 H       1  UNL1        0.2104
@<TRIPOS>BOND
     1    26    27    1
     2    27    25    1
     3    18    25    1
     4    18    16    1
     5    16     1    1
     6     1     2    2
     7     2     3    1
     8     3     4    2
     9     4     5    1
    10     5     6    2
    11     6     7    1
    12     7    10    1
    13    10    11   ar
    14    11    12   ar
    15    12    13   ar
    16    13    14   ar
    17    14    15   ar
    18     7     8    2
    19     8     9    1
    20    18    19    1
    21    19    20   ar
    22    20    21   ar
    23    21    22   ar
    24    22    23   ar
    25    23    24   ar
    26     9     1    1
    27    24    19   ar
    28     9     5    1
    29    15    10   ar
    30    26    28    1
    31    16    17    1
@<TRIPOS>MOLECULE
*****
 28 31 0 0 0
SMALL
GASTEIGER

@<TRIPOS>ATOM
      1 C         141.0692  138.0881  163.0691 C.2     1  UNL1        0.3178
      2 N         139.9743  137.6520  162.1413 N.2     1  UNL1        0.0095
      3 C         138.5806  138.1743  162.3280 C.2     1  UNL1        0.4717
      4 N         138.2819  139.1327  163.4426 N.2     1  UNL1        0.0158
      5 C         139.3768  139.5688  164.3704 C.2     1  UNL1        0.3712
      6 N         139.3833  140.4959  165.5496 N.2     1  UNL1       -0.0378
      7 C         140.7811  140.5466  166.0916 C.2     1  UNL1        0.1900
      8 C         141.6384  139.6509  165.2475 C.2     1  UNL1        0.0447
      9 C         140.7704  139.0465  164.1837 C.3     1  UNL1        0.2425
     10 C         141.2408  141.3518  167.2708 C.ar    1  UNL1        0.0427
     11 C         142.7034  141.4474  167.5894 C.ar    1  UNL1        0.0037
     12 C         143.1630  142.2526  168.7686 C.ar    1  UNL1        0.0001
     13 C         142.1600  142.9621  169.6291 C.ar    1  UNL1        0.0000
     14 C         140.6974  142.8665  169.3105 C.ar    1  UNL1        0.0001
     15 C         140.2378  142.0614  168.1314 C.ar    1  UNL1        0.0037
     16 N         142.4629  137.5659  162.8824 N.pl3   1  UNL1       -0.2212
     17 H         142.7514  136.7525  163.3562 H       1  UNL1        0.2921
     18 C         143.4171  138.2829  161.9739 C.3     1  UNL1        0.1816
     19 C         144.1352  139.5081  162.4568 C.ar    1  UNL1        0.0198
     20 C         144.7938  139.5091  163.8045 C.ar    1  UNL1       -0.0004
     21 C         145.5120  140.7343  164.2874 C.ar    1  UNL1       -0.0002
     22 C         145.5715  141.9584  163.4226 C.ar    1  UNL1       -0.0000
     23 C         144.9129  141.9574  162.0749 C.ar    1  UNL1       -0.0002
     24 C         144.1948  140.7323  161.5920 C.ar    1  UNL1       -0.0004
     25 C         143.6531  137.7747  160.5825 C.3     1  UNL1        0.0829
     26 O         141.5305  138.8462  159.5352 O.3     1  UNL1       -0.3818
     27 C         142.5196  137.7203  159.6015 C.3     1  UNL1        0.1417
     28 H         140.8675  138.6543  158.8536 H       1  UNL1        0.2104
@<TRIPOS>BOND
     1    26    27    1
     2    27    25    1
     3    18    25    1
     4    18    16    1
     5    16     1    1
     6     1     2    2
     7     2     3    1
     8     3     4    2
     9     4     5    1
    10     5     6    2
    11     6     7    1
    12     7    10    1
    13    10    11   ar
    14    11    12   ar
    15    12    13   ar
    16    13    14   ar
    17    14    15   ar
    18     7     8    2
    19     8     9    1
    20    18    19    1
    21    19    20   ar
    22    20    21   ar
    23    21    22   ar
    24    22    23   ar
    25    23    24   ar
    26     9     1    1
    27    24    19   ar
    28     9     5    1
    29    15    10   ar
    30    26    28    1
    31    16    17    1
@<TRIPOS>MOLECULE
*****
 28 31 0 0 0
SMALL
GASTEIGER

@<TRIPOS>ATOM
      1 C         142.3282  140.7169  162.8036 C.2     1  UNL1        0.3178
      2 N         142.6648  139.5430  161.9327 N.2     1  UNL1        0.0095
      3 C         142.5218  138.1483  162.4658 C.2     1  UNL1        0.4717
      4 N         142.0422  137.9275  163.8698 N.2     1  UNL1        0.0158
      5 C         141.7056  139.1014  164.7407 C.2     1  UNL1        0.3712
      6 N         141.2132  139.1938  166.1546 N.2     1  UNL1       -0.0378
      7 C         141.0519  140.6457  166.4953 C.2     1  UNL1        0.1900
      8 C         141.4446  141.4506  165.2920 C.2     1  UNL1        0.0447
      9 C         141.8486  140.4961  164.2076 C.3     1  UNL1        0.2425
     10 C         140.5806  141.1960  167.8088 C.ar    1  UNL1        0.0427
     11 C         139.8129  140.3222  168.7559 C.ar    1  UNL1        0.0037
     12 C         139.3417  140.8726  170.0693 C.ar    1  UNL1        0.0001
     13 C         139.6381  142.2966  170.4356 C.ar    1  UNL1        0.0000
     14 C         140.4058  143.1704  169.4884 C.ar    1  UNL1        0.0001
     15 C         140.8770  142.6201  168.1750 C.ar    1  UNL1        0.0037
     16 N         142.4712  142.1117  162.2706 N.pl3   1  UNL1       -0.2212
     17 H         143.3468  142.5611  162.2961 H       1  UNL1        0.2921
     18 C         141.2802  142.8218  161.6986 C.3     1  UNL1        0.1816
     19 C         140.1590  143.2503  162.5984 C.ar    1  UNL1        0.0198
     20 C         140.3619  144.3808  163.5632 C.ar    1  UNL1       -0.0004
     21 C         139.2408  144.8092  164.4629 C.ar    1  UNL1       -0.0002
     22 C         137.9168  144.1072  164.3978 C.ar    1  UNL1       -0.0000
     23 C         137.7140  142.9767  163.4330 C.ar    1  UNL1       -0.0002
     24 C         138.8351  142.5482  162.5333 C.ar    1  UNL1       -0.0004
     25 C         141.2102  143.1035  160.2270 C.3     1  UNL1        0.0829
     26 O         141.7997  145.6030  159.8331 O.3     1  UNL1       -0.3818
     27 C         140.8220  144.4689  159.7423 C.3     1  UNL1        0.1417
     28 H         141.3930  146.4095  159.4795 H       1  UNL1        0.2104
@<TRIPOS>BOND
     1    26    27    1
     2    27    25    1
     3    18    25    1
     4    18    16    1
     5    16     1    1
     6     1     2    2
     7     2     3    1
     8     3     4    2
     9     4     5    1
    10     5     6    2
    11     6     7    1
    12     7    10    1
    13    10    11   ar
    14    11    12   ar
    15    12    13   ar
    16    13    14   ar
    17    14    15   ar
    18     7     8    2
    19     8     9    1
    20    18    19    1
    21    19    20   ar
    22    20    21   ar
    23    21    22   ar
    24    22    23   ar
    25    23    24   ar
    26     9     1    1
    27    24    19   ar
    28     9     5    1
    29    15    10   ar
    30    26    28    1
    31    16    17    1
@<TRIPOS>MOLECULE
*****
 28 31 0 0 0
SMALL
GASTEIGER

@<TRIPOS>ATOM
      1 C         138.5115  141.5422  162.2839 C.2     1  UNL1        0.3178
      2 N         137.8548  140.8410  161.1319 N.2     1  UNL1        0.0095
      3 C         137.6318  139.3587  161.1848 C.2     1  UNL1        0.4717
      4 N         138.0656  138.5775  162.3897 N.2     1  UNL1        0.0158
      5 C         138.7223  139.2787  163.5416 C.2     1  UNL1        0.3712
      6 N         139.2522  138.7768  164.8521 N.2     1  UNL1       -0.0378
      7 C         139.8026  139.9490  165.6091 C.2     1  UNL1        0.1900
      8 C         139.6129  141.1754  164.7665 C.2     1  UNL1        0.0447
      9 C         138.9452  140.7611  163.4887 C.3     1  UNL1        0.2425
     10 C         140.4323  139.9028  166.9698 C.ar    1  UNL1        0.0427
     11 C         139.5931  140.1280  168.1925 C.ar    1  UNL1        0.0037
     12 C         140.2227  140.0818  169.5532 C.ar    1  UNL1        0.0001
     13 C         141.6915  139.8105  169.6911 C.ar    1  UNL1        0.0000
     14 C         142.5307  139.5854  168.4684 C.ar    1  UNL1        0.0001
     15 C         141.9010  139.6315  167.1078 C.ar    1  UNL1        0.0037
     16 N         138.7344  143.0247  162.2310 N.pl3   1  UNL1       -0.2212
     17 H         138.0681  143.6368  162.6190 H       1  UNL1        0.2921
     18 C         139.9725  143.5744  161.5868 C.3     1  UNL1        0.1816
     19 C         141.2179  143.7688  162.4001 C.ar    1  UNL1        0.0198
     20 C         142.2628  142.6934  162.4404 C.ar    1  UNL1       -0.0004
     21 C         143.5082  142.8877  163.2536 C.ar    1  UNL1       -0.0002
     22 C         143.7086  144.1576  164.0264 C.ar    1  UNL1       -0.0000
     23 C         142.6638  145.2330  163.9860 C.ar    1  UNL1       -0.0002
     24 C         141.4184  145.0386  163.1729 C.ar    1  UNL1       -0.0004
     25 C         139.9653  143.9296  160.1296 C.3     1  UNL1        0.0829
     26 O         141.8269  145.6731  159.6347 O.3     1  UNL1       -0.3818
     27 C         140.3739  145.3046  159.6907 C.3     1  UNL1        0.1417
     28 H         141.9163  146.5908  159.3334 H       1  UNL1        0.2104
@<TRIPOS>BOND
     1    26    27    1
     2    27    25    1
     3    18    25    1
     4    18    16    1
     5    16     1    1
     6     1     2    2
     7     2     3    1
     8     3     4    2
     9     4     5    1
    10     5     6    2
    11     6     7    1
    12     7    10    1
    13    10    11   ar
    14    11    12   ar
    15    12    13   ar
    16    13    14   ar
    17    14    15   ar
    18     7     8    2
    19     8     9    1
    20    18    19    1
    21    19    20   ar
    22    20    21   ar
    23    21    22   ar
    24    22    23   ar
    25    23    24   ar
    26     9     1    1
    27    24    19   ar
    28     9     5    1
    29    15    10   ar
    30    26    28    1
    31    16    17    1
