@<TRIPOS>MOLECULE
*****
 33 35 0 0 0
SMALL
GASTEIGER

@<TRIPOS>ATOM
      1 C         138.4519  138.9599  162.7876 C.ar    1  UNL1        0.0859
      2 C         138.8679  137.7108  163.5064 C.ar    1  UNL1        0.1060
      3 N         138.8755  137.6756  165.0060 N.ar    1  UNL1       -0.2288
      4 C         138.4671  138.8895  165.7868 C.ar    1  UNL1        0.1345
      5 C         138.0512  140.1386  165.0680 C.ar    1  UNL1        0.0492
      6 C         138.0436  140.1738  163.5684 C.ar    1  UNL1        0.0570
      7 C         139.5962  138.4701  159.0192 C.3     1  UNL1        0.1109
      8 N         139.6038  138.4349  160.5188 N.am    1  UNL1       -0.2991
      9 C         138.4443  138.9951  161.2881 C.2     1  UNL1        0.2486
     10 O         137.2772  139.5905  160.5577 O.2     1  UNL1       -0.2700
     11 H         140.3698  138.0441  160.9981 H       1  UNL1        0.1498
     12 N         138.4747  138.8543  167.2863 N.pl3   1  UNL1       -0.2833
     13 H         138.0100  138.1297  167.7641 H       1  UNL1        0.1550
     14 C         139.1903  139.9231  168.0580 C.ar    1  UNL1        0.1334
     15 C         140.0116  140.9486  167.3340 C.ar    1  UNL1        0.0376
     16 C         140.7272  142.0174  168.1057 C.ar    1  UNL1        0.0414
     17 C         140.6216  142.0608  169.6014 C.ar    1  UNL1        0.1579
     18 C         139.8004  141.0354  170.3253 C.ar    1  UNL1        0.1370
     19 N         139.0847  139.9665  169.5537 N.ar    1  UNL1       -0.2259
     20 O         141.3372  143.1297  170.3730 O.3     1  UNL1       -0.4699
     21 C         142.8274  143.0689  170.5332 C.3     1  UNL1        0.2525
     22 N         137.6276  141.4230  162.8496 N.pl3   1  UNL1       -0.3113
     23 H         136.9125  141.3871  162.1739 H       1  UNL1        0.1523
     24 C         138.3011  142.7267  163.1604 C.ar    1  UNL1        0.0656
     25 C         138.0542  143.4036  164.4760 C.ar    1  UNL1        0.0159
     26 C         138.7278  144.7074  164.7867 C.ar    1  UNL1        0.0014
     27 C         139.6483  145.3342  163.7819 C.ar    1  UNL1        0.0014
     28 C         139.8952  144.6573  162.4663 C.ar    1  UNL1        0.0196
     29 C         139.2217  143.3536  162.1555 C.ar    1  UNL1        0.1190
     30 S         139.4686  142.6767  160.8399 S.O2    1  UNL1        0.0116
     31 C         139.7155  141.9998  159.5243 C.3     1  UNL1        0.1816
     32 O         140.8334  142.2659  161.3074 O.2     1  UNL1       -0.1685
     33 O         138.1038  143.0875  160.3724 O.2     1  UNL1       -0.1685
@<TRIPOS>BOND
     1     7     8    1
     2     8     9   am
     3     9    10    2
     4     9     1    1
     5     1     2   ar
     6     2     3   ar
     7     3     4   ar
     8     4    12    1
     9    12    14    1
    10    14    15   ar
    11    15    16   ar
    12    16    17   ar
    13    17    20    1
    14    20    21    1
    15    17    18   ar
    16    18    19   ar
    17     4     5   ar
    18     5     6   ar
    19     6    22    1
    20    22    24    1
    21    24    25   ar
    22    25    26   ar
    23    26    27   ar
    24    27    28   ar
    25    28    29   ar
    26    29    30    1
    27    30    31    1
    28    30    32    2
    29    30    33    2
    30     6     1   ar
    31    29    24   ar
    32    19    14   ar
    33     8    11    1
    34    12    13    1
    35    22    23    1
@<TRIPOS>MOLECULE
*****
 33 35 0 0 0
SMALL
GASTEIGER

@<TRIPOS>ATOM
      1 C         138.6663  140.4872  159.6559 C.ar    1  UNL1        0.0859
      2 C         139.2180  139.1018  159.4940 C.ar    1  UNL1        0.1060
      3 N         139.7999  138.3834  160.6753 N.ar    1  UNL1       -0.2288
      4 C         139.8301  139.0504  162.0184 C.ar    1  UNL1        0.1345
      5 C         139.2784  140.4358  162.1803 C.ar    1  UNL1        0.0492
      6 C         138.6966  141.1542  160.9991 C.ar    1  UNL1        0.0570
      7 C         136.5729  141.2047  156.3616 C.3     1  UNL1        0.1109
      8 N         137.1548  140.4863  157.5429 N.am    1  UNL1       -0.2991
      9 C         138.0845  141.2056  158.4747 C.2     1  UNL1        0.2486
     10 O         138.4323  142.6432  158.2253 O.2     1  UNL1       -0.2700
     11 H         136.9265  139.5428  157.7066 H       1  UNL1        0.1498
     12 N         140.4120  138.3320  163.1997 N.pl3   1  UNL1       -0.2833
     13 H         141.0945  137.6355  163.0649 H       1  UNL1        0.1550
     14 C         139.9539  138.6749  164.5862 C.ar    1  UNL1        0.1334
     15 C         138.6382  138.1601  165.0903 C.ar    1  UNL1        0.0376
     16 C         138.1801  138.5030  166.4768 C.ar    1  UNL1        0.0414
     17 C         139.0377  139.3607  167.3594 C.ar    1  UNL1        0.1579
     18 C         140.3533  139.8755  166.8554 C.ar    1  UNL1        0.1370
     19 N         140.8115  139.5326  165.4688 N.ar    1  UNL1       -0.2259
     20 O         138.5795  139.7036  168.7460 O.3     1  UNL1       -0.4699
     21 C         139.4642  140.5095  169.6504 C.3     1  UNL1        0.2525
     22 N         138.1449  142.5397  161.1611 N.pl3   1  UNL1       -0.3113
     23 H         137.5829  142.9315  160.4540 H       1  UNL1        0.1523
     24 C         138.4494  143.3281  162.4002 C.ar    1  UNL1        0.0656
     25 C         137.5271  143.2557  163.5809 C.ar    1  UNL1        0.0159
     26 C         137.8317  144.0442  164.8201 C.ar    1  UNL1        0.0014
     27 C         139.0587  144.9051  164.8786 C.ar    1  UNL1        0.0014
     28 C         139.9810  144.9775  163.6979 C.ar    1  UNL1        0.0196
     29 C         139.6765  144.1891  162.4587 C.ar    1  UNL1        0.1190
     30 S         140.5988  144.2615  161.2781 S.O2    1  UNL1        0.0116
     31 C         141.5212  144.3339  160.0974 C.3     1  UNL1        0.1816
     32 O         141.5690  143.3586  161.9806 O.2     1  UNL1       -0.1685
     33 O         139.6287  145.1644  160.5755 O.2     1  UNL1       -0.1685
@<TRIPOS>BOND
     1     7     8    1
     2     8     9   am
     3     9    10    2
     4     9     1    1
     5     1     2   ar
     6     2     3   ar
     7     3     4   ar
     8     4    12    1
     9    12    14    1
    10    14    15   ar
    11    15    16   ar
    12    16    17   ar
    13    17    20    1
    14    20    21    1
    15    17    18   ar
    16    18    19   ar
    17     4     5   ar
    18     5     6   ar
    19     6    22    1
    20    22    24    1
    21    24    25   ar
    22    25    26   ar
    23    26    27   ar
    24    27    28   ar
    25    28    29   ar
    26    29    30    1
    27    30    31    1
    28    30    32    2
    29    30    33    2
    30     6     1   ar
    31    29    24   ar
    32    19    14   ar
    33     8    11    1
    34    12    13    1
    35    22    23    1
@<TRIPOS>MOLECULE
*****
 33 35 0 0 0
SMALL
GASTEIGER

@<TRIPOS>ATOM
      1 C         140.2770  141.5042  168.3275 C.ar    1  UNL1        0.0859
      2 C         139.4436  140.3869  168.8817 C.ar    1  UNL1        0.1060
      3 N         138.8356  139.3747  167.9567 N.ar    1  UNL1       -0.2288
      4 C         139.0610  139.4796  166.4775 C.ar    1  UNL1        0.1345
      5 C         139.8944  140.5969  165.9233 C.ar    1  UNL1        0.0492
      6 C         140.5024  141.6091  166.8483 C.ar    1  UNL1        0.0570
      7 C         142.8742  143.3135  170.7215 C.3     1  UNL1        0.1109
      8 N         142.2662  142.3012  169.7965 N.am    1  UNL1       -0.2991
      9 C         140.8850  142.5165  169.2526 C.2     1  UNL1        0.2486
     10 O         140.1117  143.7440  169.6337 O.2     1  UNL1       -0.2700
     11 H         142.7737  141.4956  169.5463 H       1  UNL1        0.1498
     12 N         138.4531  138.4674  165.5525 N.pl3   1  UNL1       -0.2833
     13 H         137.8054  137.8113  165.8979 H       1  UNL1        0.1550
     14 C         138.8319  138.4546  164.1012 C.ar    1  UNL1        0.1334
     15 C         140.0354  137.6830  163.6469 C.ar    1  UNL1        0.0376
     16 C         140.4142  137.6703  162.1956 C.ar    1  UNL1        0.0414
     17 C         139.5896  138.4292  161.1986 C.ar    1  UNL1        0.1579
     18 C         138.3862  139.2008  161.6528 C.ar    1  UNL1        0.1370
     19 N         138.0073  139.2135  163.1041 N.ar    1  UNL1       -0.2259
     20 O         139.9685  138.4165  159.7472 O.3     1  UNL1       -0.4699
     21 C         141.4097  138.5303  159.3473 C.3     1  UNL1        0.2525
     22 N         141.3359  142.7264  166.2941 N.pl3   1  UNL1       -0.3113
     23 H         142.2239  142.9141  166.6754 H       1  UNL1        0.1523
     24 C         140.8163  143.5578  165.1588 C.ar    1  UNL1        0.0656
     25 C         139.4021  144.0573  165.1809 C.ar    1  UNL1        0.0159
     26 C         138.8825  144.8887  164.0456 C.ar    1  UNL1        0.0014
     27 C         139.7771  145.2205  162.8882 C.ar    1  UNL1        0.0014
     28 C         141.1913  144.7209  162.8661 C.ar    1  UNL1        0.0196
     29 C         141.7109  143.8896  164.0013 C.ar    1  UNL1        0.1190
     30 S         143.1251  143.3901  163.9792 S.O2    1  UNL1        0.0116
     31 C         144.5393  142.8905  163.9571 C.3     1  UNL1        0.1816
     32 O         142.6271  141.9888  163.7830 O.2     1  UNL1       -0.1685
     33 O         143.6231  144.7913  164.1755 O.2     1  UNL1       -0.1685
@<TRIPOS>BOND
     1     7     8    1
     2     8     9   am
     3     9    10    2
     4     9     1    1
     5     1     2   ar
     6     2     3   ar
     7     3     4   ar
     8     4    12    1
     9    12    14    1
    10    14    15   ar
    11    15    16   ar
    12    16    17   ar
    13    17    20    1
    14    20    21    1
    15    17    18   ar
    16    18    19   ar
    17     4     5   ar
    18     5     6   ar
    19     6    22    1
    20    22    24    1
    21    24    25   ar
    22    25    26   ar
    23    26    27   ar
    24    27    28   ar
    25    28    29   ar
    26    29    30    1
    27    30    31    1
    28    30    32    2
    29    30    33    2
    30     6     1   ar
    31    29    24   ar
    32    19    14   ar
    33     8    11    1
    34    12    13    1
    35    22    23    1
@<TRIPOS>MOLECULE
*****
 33 35 0 0 0
SMALL
GASTEIGER

@<TRIPOS>ATOM
      1 C         138.6472  139.1526  162.0289 C.ar    1  UNL1        0.0859
      2 C         138.8199  137.8820  162.8072 C.ar    1  UNL1        0.1060
      3 N         138.7477  137.9045  164.3053 N.ar    1  UNL1       -0.2288
      4 C         138.5028  139.1974  165.0251 C.ar    1  UNL1        0.1345
      5 C         138.3302  140.4680  164.2468 C.ar    1  UNL1        0.0492
      6 C         138.4024  140.4456  162.7487 C.ar    1  UNL1        0.0570
      7 C         139.9692  138.4799  158.3479 C.3     1  UNL1        0.1109
      8 N         139.8970  138.5023  159.8460 N.am    1  UNL1       -0.2991
      9 C         138.7194  139.1302  160.5308 C.2     1  UNL1        0.2486
     10 O         137.6140  139.7356  159.7175 O.2     1  UNL1       -0.2700
     11 H         140.6225  138.1049  160.3798 H       1  UNL1        0.1498
     12 N         138.4307  139.2199  166.5232 N.pl3   1  UNL1       -0.2833
     13 H         137.5886  138.9908  166.9789 H       1  UNL1        0.1550
     14 C         139.6414  139.5913  167.3269 C.ar    1  UNL1        0.1334
     15 C         140.9666  139.7709  166.6474 C.ar    1  UNL1        0.0376
     16 C         142.1774  140.1423  167.4511 C.ar    1  UNL1        0.0414
     17 C         142.0631  140.3340  168.9344 C.ar    1  UNL1        0.1579
     18 C         140.7380  140.1544  169.6139 C.ar    1  UNL1        0.1370
     19 N         139.5271  139.7830  168.8102 N.ar    1  UNL1       -0.2259
     20 O         143.2739  140.7054  169.7381 O.3     1  UNL1       -0.4699
     21 C         143.7253  142.1347  169.7975 C.3     1  UNL1        0.2525
     22 N         138.2297  141.7163  161.9704 N.pl3   1  UNL1       -0.3113
     23 H         137.3365  141.9809  161.6518 H       1  UNL1        0.1523
     24 C         139.4178  142.5837  161.6775 C.ar    1  UNL1        0.0656
     25 C         140.3275  142.2483  160.5330 C.ar    1  UNL1        0.0159
     26 C         141.5156  143.1158  160.2401 C.ar    1  UNL1        0.0014
     27 C         141.7941  144.3187  161.0918 C.ar    1  UNL1        0.0014
     28 C         140.8844  144.6542  162.2364 C.ar    1  UNL1        0.0196
     29 C         139.6963  143.7867  162.5292 C.ar    1  UNL1        0.1190
     30 S         138.7867  144.1222  163.6738 S.O2    1  UNL1        0.0116
     31 C         137.8770  144.4576  164.8183 C.3     1  UNL1        0.1816
     32 O         137.7203  144.5381  162.7043 O.2     1  UNL1       -0.1685
     33 O         139.8531  143.7062  164.6432 O.2     1  UNL1       -0.1685
@<TRIPOS>BOND
     1     7     8    1
     2     8     9   am
     3     9    10    2
     4     9     1    1
     5     1     2   ar
     6     2     3   ar
     7     3     4   ar
     8     4    12    1
     9    12    14    1
    10    14    15   ar
    11    15    16   ar
    12    16    17   ar
    13    17    20    1
    14    20    21    1
    15    17    18   ar
    16    18    19   ar
    17     4     5   ar
    18     5     6   ar
    19     6    22    1
    20    22    24    1
    21    24    25   ar
    22    25    26   ar
    23    26    27   ar
    24    27    28   ar
    25    28    29   ar
    26    29    30    1
    27    30    31    1
    28    30    32    2
    29    30    33    2
    30     6     1   ar
    31    29    24   ar
    32    19    14   ar
    33     8    11    1
    34    12    13    1
    35    22    23    1
@<TRIPOS>MOLECULE
*****
 33 35 0 0 0
SMALL
GASTEIGER

@<TRIPOS>ATOM
      1 C         139.9554  140.5805  167.4452 C.ar    1  UNL1        0.0859
      2 C         138.8605  139.5710  167.6242 C.ar    1  UNL1        0.1060
      3 N         138.4995  138.6484  166.4980 N.ar    1  UNL1       -0.2288
      4 C         139.2335  138.7353  165.1927 C.ar    1  UNL1        0.1345
      5 C         140.3284  139.7448  165.0137 C.ar    1  UNL1        0.0492
      6 C         140.6893  140.6674  166.1400 C.ar    1  UNL1        0.0570
      7 C         140.9600  141.8695  171.0618 C.3     1  UNL1        0.1109
      8 N         140.5991  140.9468  169.9355 N.am    1  UNL1       -0.2991
      9 C         140.3164  141.5032  168.5715 C.2     1  UNL1        0.2486
     10 O         140.3946  142.9821  168.3338 O.2     1  UNL1       -0.2700
     11 H         140.5477  139.9762  170.0916 H       1  UNL1        0.1498
     12 N         138.8725  137.8127  164.0665 N.pl3   1  UNL1       -0.2833
     13 H         138.6913  136.8621  164.2476 H       1  UNL1        0.1550
     14 C         138.7876  138.3383  162.6642 C.ar    1  UNL1        0.1334
     15 C         137.7959  139.4112  162.3241 C.ar    1  UNL1        0.0376
     16 C         137.7110  139.9369  160.9219 C.ar    1  UNL1        0.0414
     17 C         138.6177  139.3897  159.8596 C.ar    1  UNL1        0.1579
     18 C         139.6093  138.3169  160.1995 C.ar    1  UNL1        0.1370
     19 N         139.6943  137.7911  161.6019 N.ar    1  UNL1       -0.2259
     20 O         138.5328  139.9154  158.4572 O.3     1  UNL1       -0.4699
     21 C         138.0631  141.3182  158.2093 C.3     1  UNL1        0.2525
     22 N         141.7843  141.6769  165.9609 N.pl3   1  UNL1       -0.3113
     23 H         142.6418  141.5615  166.4305 H       1  UNL1        0.1523
     24 C         141.5727  142.8622  165.0664 C.ar    1  UNL1        0.0656
     25 C         140.2495  143.5687  165.0579 C.ar    1  UNL1        0.0159
     26 C         140.0379  144.7540  164.1633 C.ar    1  UNL1        0.0014
     27 C         141.1494  145.2329  163.2773 C.ar    1  UNL1        0.0014
     28 C         142.4726  144.5264  163.2858 C.ar    1  UNL1        0.0196
     29 C         142.6843  143.3411  164.1803 C.ar    1  UNL1        0.1190
     30 S         144.0075  142.6347  164.1888 S.O2    1  UNL1        0.0116
     31 C         145.3307  141.9282  164.1973 C.3     1  UNL1        0.1816
     32 O         144.5941  143.7433  165.0114 O.2     1  UNL1       -0.1685
     33 O         143.4208  141.5260  163.3662 O.2     1  UNL1       -0.1685
@<TRIPOS>BOND
     1     7     8    1
     2     8     9   am
     3     9    10    2
     4     9     1    1
     5     1     2   ar
     6     2     3   ar
     7     3     4   ar
     8     4    12    1
     9    12    14    1
    10    14    15   ar
    11    15    16   ar
    12    16    17   ar
    13    17    20    1
    14    20    21    1
    15    17    18   ar
    16    18    19   ar
    17     4     5   ar
    18     5     6   ar
    19     6    22    1
    20    22    24    1
    21    24    25   ar
    22    25    26   ar
    23    26    27   ar
    24    27    28   ar
    25    28    29   ar
    26    29    30    1
    27    30    31    1
    28    30    32    2
    29    30    33    2
    30     6     1   ar
    31    29    24   ar
    32    19    14   ar
    33     8    11    1
    34    12    13    1
    35    22    23    1
@<TRIPOS>MOLECULE
*****
 33 35 0 0 0
SMALL
GASTEIGER

@<TRIPOS>ATOM
      1 C         143.4092  142.8783  163.8275 C.ar    1  UNL1        0.0859
      2 C         144.5126  143.4929  164.6366 C.ar    1  UNL1        0.1060
      3 N         144.5031  143.3721  166.1317 N.ar    1  UNL1       -0.2288
      4 C         143.3901  142.6368  166.8177 C.ar    1  UNL1        0.1345
      5 C         142.2867  142.0223  166.0086 C.ar    1  UNL1        0.0492
      6 C         142.2962  142.1430  164.5135 C.ar    1  UNL1        0.0570
      7 C         144.5524  142.5228  160.0438 C.3     1  UNL1        0.1109
      8 N         144.5429  142.4020  161.5389 N.am    1  UNL1       -0.2991
      9 C         143.4187  142.9990  162.3324 C.2     1  UNL1        0.2486
     10 O         142.3040  143.7168  161.6308 O.2     1  UNL1       -0.2700
     11 H         145.2745  141.9309  161.9994 H       1  UNL1        0.1498
     12 N         143.3806  142.5161  168.3128 N.pl3   1  UNL1       -0.2833
     13 H         144.0989  142.9291  168.8446 H       1  UNL1        0.1550
     14 C         142.2768  141.7662  168.9977 C.ar    1  UNL1        0.1334
     15 C         142.4335  140.3036  169.2916 C.ar    1  UNL1        0.0376
     16 C         141.3297  139.5537  169.9765 C.ar    1  UNL1        0.0414
     17 C         140.0690  140.2664  170.3675 C.ar    1  UNL1        0.1579
     18 C         139.9122  141.7289  170.0736 C.ar    1  UNL1        0.1370
     19 N         141.0161  142.4789  169.3887 N.ar    1  UNL1       -0.2259
     20 O         138.9651  139.5164  171.0524 O.3     1  UNL1       -0.4699
     21 C         137.5836  139.5160  170.4680 C.3     1  UNL1        0.2525
     22 N         141.1927  141.5284  163.7044 N.pl3   1  UNL1       -0.3113
     23 H         140.8816  141.9695  162.8811 H       1  UNL1        0.1523
     24 C         140.5632  140.2418  164.1498 C.ar    1  UNL1        0.0656
     25 C         139.2335  140.2583  164.8438 C.ar    1  UNL1        0.0159
     26 C         138.6040  138.9716  165.2892 C.ar    1  UNL1        0.0014
     27 C         139.3042  137.6686  165.0406 C.ar    1  UNL1        0.0014
     28 C         140.6339  137.6522  164.3467 C.ar    1  UNL1        0.0196
     29 C         141.2634  138.9387  163.9013 C.ar    1  UNL1        0.1190
     30 S         142.5932  138.9223  163.2073 S.O2    1  UNL1        0.0116
     31 C         143.9229  138.9059  162.5134 C.3     1  UNL1        0.1816
     32 O         141.9216  139.2710  161.9122 O.2     1  UNL1       -0.1685
     33 O         143.2648  138.5737  164.5025 O.2     1  UNL1       -0.1685
@<TRIPOS>BOND
     1     7     8    1
     2     8     9   am
     3     9    10    2
     4     9     1    1
     5     1     2   ar
     6     2     3   ar
     7     3     4   ar
     8     4    12    1
     9    12    14    1
    10    14    15   ar
    11    15    16   ar
    12    16    17   ar
    13    17    20    1
    14    20    21    1
    15    17    18   ar
    16    18    19   ar
    17     4     5   ar
    18     5     6   ar
    19     6    22    1
    20    22    24    1
    21    24    25   ar
    22    25    26   ar
    23    26    27   ar
    24    27    28   ar
    25    28    29   ar
    26    29    30    1
    27    30    31    1
    28    30    32    2
    29    30    33    2
    30     6     1   ar
    31    29    24   ar
    32    19    14   ar
    33     8    11    1
    34    12    13    1
    35    22    23    1
@<TRIPOS>MOLECULE
*****
 33 35 0 0 0
SMALL
GASTEIGER

@<TRIPOS>ATOM
      1 C         143.4967  141.4819  162.4227 C.ar    1  UNL1        0.0859
      2 C         144.6294  140.7440  163.0725 C.ar    1  UNL1        0.1060
      3 N         144.3754  139.8955  164.2831 N.ar    1  UNL1       -0.2288
      4 C         142.9886  139.7848  164.8438 C.ar    1  UNL1        0.1345
      5 C         141.8558  140.5227  164.1940 C.ar    1  UNL1        0.0492
      6 C         142.1099  141.3713  162.9835 C.ar    1  UNL1        0.0570
      7 C         144.5034  142.5488  158.7352 C.3     1  UNL1        0.1109
      8 N         144.2494  141.7002  159.9457 N.am    1  UNL1       -0.2991
      9 C         143.7507  142.3305  161.2122 C.2     1  UNL1        0.2486
     10 O         143.5059  143.8093  161.2681 O.2     1  UNL1       -0.2700
     11 H         144.4101  140.7296  159.9090 H       1  UNL1        0.1498
     12 N         142.7346  138.9363  166.0544 N.pl3   1  UNL1       -0.2833
     13 H         142.9927  137.9862  166.0525 H       1  UNL1        0.1550
     14 C         142.0875  139.5352  167.2678 C.ar    1  UNL1        0.1334
     15 C         140.6365  139.9144  167.2340 C.ar    1  UNL1        0.0376
     16 C         139.9894  140.5133  168.4474 C.ar    1  UNL1        0.0414
     17 C         140.7932  140.7332  169.6946 C.ar    1  UNL1        0.1579
     18 C         142.2440  140.3541  169.7285 C.ar    1  UNL1        0.1370
     19 N         142.8912  139.7551  168.5150 N.ar    1  UNL1       -0.2259
     20 O         140.1459  141.3323  170.9081 O.3     1  UNL1       -0.4699
     21 C         139.6741  142.7558  170.8808 C.3     1  UNL1        0.2525
     22 N         140.9770  142.1092  162.3337 N.pl3   1  UNL1       -0.3113
     23 H         140.8878  142.1096  161.3532 H       1  UNL1        0.1523
     24 C         139.9800  142.8464  163.1777 C.ar    1  UNL1        0.0656
     25 C         140.4233  144.0022  164.0248 C.ar    1  UNL1        0.0159
     26 C         139.4262  144.7394  164.8688 C.ar    1  UNL1        0.0014
     27 C         137.9859  144.3208  164.8658 C.ar    1  UNL1        0.0014
     28 C         137.5425  143.1650  164.0188 C.ar    1  UNL1        0.0196
     29 C         138.5395  142.4278  163.1748 C.ar    1  UNL1        0.1190
     30 S         138.0962  141.2719  162.3278 S.O2    1  UNL1        0.0116
     31 C         137.6528  140.1161  161.4807 C.3     1  UNL1        0.1816
     32 O         137.7585  142.2178  161.2137 O.2     1  UNL1       -0.1685
     33 O         138.4338  140.3260  163.4418 O.2     1  UNL1       -0.1685
@<TRIPOS>BOND
     1     7     8    1
     2     8     9   am
     3     9    10    2
     4     9     1    1
     5     1     2   ar
     6     2     3   ar
     7     3     4   ar
     8     4    12    1
     9    12    14    1
    10    14    15   ar
    11    15    16   ar
    12    16    17   ar
    13    17    20    1
    14    20    21    1
    15    17    18   ar
    16    18    19   ar
    17     4     5   ar
    18     5     6   ar
    19     6    22    1
    20    22    24    1
    21    24    25   ar
    22    25    26   ar
    23    26    27   ar
    24    27    28   ar
    25    28    29   ar
    26    29    30    1
    27    30    31    1
    28    30    32    2
    29    30    33    2
    30     6     1   ar
    31    29    24   ar
    32    19    14   ar
    33     8    11    1
    34    12    13    1
    35    22    23    1
@<TRIPOS>MOLECULE
*****
 33 35 0 0 0
SMALL
GASTEIGER

@<TRIPOS>ATOM
      1 C         141.2783  139.6774  166.4241 C.ar    1  UNL1        0.0859
      2 C         142.6570  139.2039  166.7774 C.ar    1  UNL1        0.1060
      3 N         143.6967  139.0562  165.7063 N.ar    1  UNL1       -0.2288
      4 C         143.3578  139.3822  164.2820 C.ar    1  UNL1        0.1345
      5 C         141.9791  139.8557  163.9287 C.ar    1  UNL1        0.0492
      6 C         140.9393  140.0033  164.9997 C.ar    1  UNL1        0.0570
      7 C         139.5509  140.6297  169.8678 C.3     1  UNL1        0.1109
      8 N         140.5906  140.4821  168.7967 N.am    1  UNL1       -0.2991
      9 C         140.2385  139.8250  167.4951 C.2     1  UNL1        0.2486
     10 O         138.8467  139.3155  167.2646 O.2     1  UNL1       -0.2700
     11 H         141.5041  140.8165  168.9481 H       1  UNL1        0.1498
     12 N         144.3975  139.2345  163.2109 N.pl3   1  UNL1       -0.2833
     13 H         145.1441  138.6045  163.3331 H       1  UNL1        0.1550
     14 C         144.2998  140.0468  161.9537 C.ar    1  UNL1        0.1334
     15 C         143.9122  139.3877  160.6631 C.ar    1  UNL1        0.0376
     16 C         143.8144  140.1999  159.4059 C.ar    1  UNL1        0.0414
     17 C         144.1042  141.6713  159.4392 C.ar    1  UNL1        0.1579
     18 C         144.4918  142.3304  160.7296 C.ar    1  UNL1        0.1370
     19 N         144.5895  141.5182  161.9869 N.ar    1  UNL1       -0.2259
     20 O         144.0064  142.4836  158.1819 O.3     1  UNL1       -0.4699
     21 C         143.1120  143.6867  158.1339 C.3     1  UNL1        0.2525
     22 N         139.5605  140.4768  164.6463 N.pl3   1  UNL1       -0.3113
     23 H         138.8288  139.8267  164.5408 H       1  UNL1        0.1523
     24 C         139.2967  141.9408  164.4538 C.ar    1  UNL1        0.0656
     25 C         139.6972  142.9211  165.5162 C.ar    1  UNL1        0.0159
     26 C         139.4333  144.3852  165.3237 C.ar    1  UNL1        0.0014
     27 C         138.7690  144.8689  164.0688 C.ar    1  UNL1        0.0014
     28 C         138.3686  143.8885  163.0064 C.ar    1  UNL1        0.0196
     29 C         138.6324  142.4246  163.1989 C.ar    1  UNL1        0.1190
     30 S         138.2319  141.4443  162.1365 S.O2    1  UNL1        0.0116
     31 C         137.8315  140.4640  161.0742 C.3     1  UNL1        0.1816
     32 O         136.8619  141.3499  162.7400 O.2     1  UNL1       -0.1685
     33 O         139.6019  141.5386  161.5331 O.2     1  UNL1       -0.1685
@<TRIPOS>BOND
     1     7     8    1
     2     8     9   am
     3     9    10    2
     4     9     1    1
     5     1     2   ar
     6     2     3   ar
     7     3     4   ar
     8     4    12    1
     9    12    14    1
    10    14    15   ar
    11    15    16   ar
    12    16    17   ar
    13    17    20    1
    14    20    21    1
    15    17    18   ar
    16    18    19   ar
    17     4     5   ar
    18     5     6   ar
    19     6    22    1
    20    22    24    1
    21    24    25   ar
    22    25    26   ar
    23    26    27   ar
    24    27    28   ar
    25    28    29   ar
    26    29    30    1
    27    30    31    1
    28    30    32    2
    29    30    33    2
    30     6     1   ar
    31    29    24   ar
    32    19    14   ar
    33     8    11    1
    34    12    13    1
    35    22    23    1
@<TRIPOS>MOLECULE
*****
 33 35 0 0 0
SMALL
GASTEIGER

@<TRIPOS>ATOM
      1 C         139.7874  140.0069  166.9157 C.ar    1  UNL1        0.0859
      2 C         138.7233  138.9590  166.7756 C.ar    1  UNL1        0.1060
      3 N         138.4643  138.3269  165.4401 N.ar    1  UNL1       -0.2288
      4 C         139.2693  138.7427  164.2448 C.ar    1  UNL1        0.1345
      5 C         140.3334  139.7906  164.3848 C.ar    1  UNL1        0.0492
      6 C         140.5924  140.4227  165.7203 C.ar    1  UNL1        0.0570
      7 C         140.3807  140.4180  170.8181 C.3     1  UNL1        0.1109
      8 N         140.1217  139.7860  169.4826 N.am    1  UNL1       -0.2991
      9 C         140.0464  140.6389  168.2511 C.2     1  UNL1        0.2486
     10 O         140.2300  142.1240  168.3550 O.2     1  UNL1       -0.2700
     11 H         140.0012  138.8113  169.4144 H       1  UNL1        0.1498
     12 N         139.0103  138.1107  162.9093 N.pl3   1  UNL1       -0.2833
     13 H         138.1554  137.6533  162.7387 H       1  UNL1        0.1550
     14 C         140.0539  138.1754  161.8339 C.ar    1  UNL1        0.1334
     15 C         141.4481  137.6967  162.1118 C.ar    1  UNL1        0.0376
     16 C         142.4917  137.7614  161.0364 C.ar    1  UNL1        0.0414
     17 C         142.1412  138.3049  159.6829 C.ar    1  UNL1        0.1579
     18 C         140.7471  138.7836  159.4049 C.ar    1  UNL1        0.1370
     19 N         139.7034  138.7188  160.4804 N.ar    1  UNL1       -0.2259
     20 O         143.1849  138.3696  158.6074 O.3     1  UNL1       -0.4699
     21 C         143.3504  139.6210  157.7973 C.3     1  UNL1        0.2525
     22 N         141.6565  141.4706  165.8603 N.pl3   1  UNL1       -0.3113
     23 H         142.4051  141.3317  166.4845 H       1  UNL1        0.1523
     24 C         141.5801  142.7302  165.0494 C.ar    1  UNL1        0.0656
     25 C         140.3289  143.5574  165.0648 C.ar    1  UNL1        0.0159
     26 C         140.2525  144.8170  164.2538 C.ar    1  UNL1        0.0014
     27 C         141.4273  145.2493  163.4274 C.ar    1  UNL1        0.0014
     28 C         142.6785  144.4221  163.4120 C.ar    1  UNL1        0.0196
     29 C         142.7549  143.1626  164.2229 C.ar    1  UNL1        0.1190
     30 S         144.0061  142.3354  164.2075 S.O2    1  UNL1        0.0116
     31 C         145.2573  141.5082  164.1921 C.3     1  UNL1        0.1816
     32 O         143.3267  141.3241  163.3324 O.2     1  UNL1       -0.1685
     33 O         144.6855  143.3466  165.0826 O.2     1  UNL1       -0.1685
@<TRIPOS>BOND
     1     7     8    1
     2     8     9   am
     3     9    10    2
     4     9     1    1
     5     1     2   ar
     6     2     3   ar
     7     3     4   ar
     8     4    12    1
     9    12    14    1
    10    14    15   ar
    11    15    16   ar
    12    16    17   ar
    13    17    20    1
    14    20    21    1
    15    17    18   ar
    16    18    19   ar
    17     4     5   ar
    18     5     6   ar
    19     6    22    1
    20    22    24    1
    21    24    25   ar
    22    25    26   ar
    23    26    27   ar
    24    27    28   ar
    25    28    29   ar
    26    29    30    1
    27    30    31    1
    28    30    32    2
    29    30    33    2
    30     6     1   ar
    31    29    24   ar
    32    19    14   ar
    33     8    11    1
    34    12    13    1
    35    22    23    1
