@<TRIPOS>MOLECULE
*****
 33 34 0 0 0
SMALL
GASTEIGER

@<TRIPOS>ATOM
      1 C         141.6899  142.8053  164.3518 C.3     1  UNL1        0.0197
      2 C         142.7625  143.8503  164.4373 C.3     1  UNL1        0.0187
      3 C         144.2068  143.4483  164.3884 C.3     1  UNL1        0.0722
      4 N         144.7592  142.7833  163.1626 N.3     1  UNL1       -0.2712
      5 C         144.4048  143.3056  161.8018 C.3     1  UNL1        0.0896
      6 C         145.6659  141.5960  163.2975 C.3     1  UNL1        0.0768
      7 C         145.2926  140.4672  164.2120 C.3     1  UNL1        0.0438
      8 C         141.7148  137.9031  163.2768 C.ar    1  UNL1        0.1724
      9 C         142.1741  138.0609  164.6959 C.ar    1  UNL1        0.0397
     10 C         143.3667  138.9156  165.0077 C.ar    1  UNL1       -0.0009
     11 C         144.1000  139.6125  163.9003 C.ar    1  UNL1       -0.0176
     12 C         143.6407  139.4548  162.4811 C.ar    1  UNL1        0.0358
     13 C         142.4481  138.6001  162.1693 C.ar    1  UNL1        0.1721
     14 C         139.1477  137.6490  162.9678 C.3     1  UNL1        0.2526
     15 O         140.5222  137.0484  162.9650 O.3     1  UNL1       -0.4684
     16 O         141.9888  138.4423  160.7501 O.3     1  UNL1       -0.4684
     17 C         142.8777  137.7733  159.7441 C.3     1  UNL1        0.2526
     18 C         140.2576  143.1791  164.5945 C.3     1  UNL1        0.0981
     19 C         140.2423  142.3214  165.8250 C.ar    1  UNL1       -0.0065
     20 C         140.0069  140.8447  165.7070 C.ar    1  UNL1        0.0000
     21 C         139.9916  139.9870  166.9375 C.ar    1  UNL1        0.0398
     22 C         140.2116  140.6060  168.2860 C.ar    1  UNL1        0.1724
     23 C         140.4470  142.0827  168.4040 C.ar    1  UNL1        0.1721
     24 C         140.4623  142.9404  167.1735 C.ar    1  UNL1        0.0367
     25 O         140.1963  139.7483  169.5165 O.3     1  UNL1       -0.4684
     26 C         141.4869  139.3446  170.1655 C.3     1  UNL1        0.2526
     27 O         140.6670  142.7017  169.7525 O.3     1  UNL1       -0.4684
     28 C         142.0560  143.0464  170.2019 C.3     1  UNL1        0.2526
     29 C         138.8253  143.5529  164.8372 C.3     1  UNL1        0.0169
     30 C         137.7265  142.6170  164.4292 C.3     1  UNL1        0.0014
     31 C         138.4920  144.8627  165.4879 C.3     1  UNL1        0.0014
     32 C         140.2729  144.0368  163.3640 C.1     1  UNL1        0.0752
     33 N         140.2883  144.8945  162.1335 N.1     1  UNL1       -0.1956
@<TRIPOS>BOND
     1    14    15    1
     2    15     8    1
     3     8     9   ar
     4     9    10   ar
     5    10    11   ar
     6    11     7    1
     7     7     6    1
     8     6     4    1
     9     4     5    1
    10     4     3    1
    11     3     2    1
    12     2     1    1
    13     1    18    1
    14    18    32    1
    15    32    33    3
    16    18    19    1
    17    19    20   ar
    18    20    21   ar
    19    21    22   ar
    20    22    25    1
    21    25    26    1
    22    22    23   ar
    23    23    27    1
    24    27    28    1
    25    23    24   ar
    26    18    29    1
    27    29    30    1
    28    29    31    1
    29    11    12   ar
    30    12    13   ar
    31    13    16    1
    32    16    17    1
    33    13     8   ar
    34    24    19   ar
@<TRIPOS>MOLECULE
*****
 33 34 0 0 0
SMALL
GASTEIGER

@<TRIPOS>ATOM
      1 C         140.4794  141.4796  163.5131 C.3     1  UNL1        0.0197
      2 C         139.2469  140.7205  163.1200 C.3     1  UNL1        0.0187
      3 C         138.2806  140.2626  164.1719 C.3     1  UNL1        0.0722
      4 N         138.4921  138.9487  164.8638 N.3     1  UNL1       -0.2712
      5 C         138.0976  138.7861  166.3019 C.3     1  UNL1        0.0896
      6 C         139.0981  137.7971  164.1176 C.3     1  UNL1        0.0768
      7 C         140.3790  137.1825  164.5986 C.3     1  UNL1        0.0438
      8 C         144.2564  139.4220  164.1510 C.ar    1  UNL1        0.1724
      9 C         143.6469  139.2419  165.5096 C.ar    1  UNL1        0.0397
     10 C         142.3544  138.4954  165.6588 C.ar    1  UNL1       -0.0009
     11 C         141.6715  137.9290  164.4494 C.ar    1  UNL1       -0.0176
     12 C         142.2810  138.1092  163.0907 C.ar    1  UNL1        0.0358
     13 C         143.5735  138.8557  162.9415 C.ar    1  UNL1        0.1721
     14 C         145.5397  141.6055  163.5717 C.3     1  UNL1        0.2526
     15 O         145.5489  140.1685  164.0018 O.3     1  UNL1       -0.4684
     16 O         144.1830  139.0358  161.5828 O.3     1  UNL1       -0.4684
     17 C         143.4480  138.5655  160.3627 C.3     1  UNL1        0.2526
     18 C         140.3845  142.9358  163.8604 C.3     1  UNL1        0.0981
     19 C         141.0713  142.6689  165.1670 C.ar    1  UNL1       -0.0065
     20 C         142.5656  142.7586  165.2609 C.ar    1  UNL1        0.0000
     21 C         143.2524  142.4917  166.5675 C.ar    1  UNL1        0.0398
     22 C         142.4448  142.1350  167.7801 C.ar    1  UNL1        0.1724
     23 C         140.9505  142.0453  167.6862 C.ar    1  UNL1        0.1721
     24 C         140.2637  142.3122  166.3796 C.ar    1  UNL1        0.0367
     25 O         143.1316  141.8681  169.0867 O.3     1  UNL1       -0.4684
     26 C         142.9841  142.8361  170.2230 C.3     1  UNL1        0.2526
     27 O         140.1428  141.6886  168.8989 O.3     1  UNL1       -0.4684
     28 C         139.8635  140.2497  169.2174 C.3     1  UNL1        0.2526
     29 C         140.2895  144.3919  164.2078 C.3     1  UNL1        0.0169
     30 C         139.0970  144.9080  164.9571 C.3     1  UNL1        0.0014
     31 C         141.3872  145.3320  163.8058 C.3     1  UNL1        0.0014
     32 C         139.6977  143.2027  162.5539 C.1     1  UNL1        0.0752
     33 N         139.0109  143.4696  161.2473 N.1     1  UNL1       -0.1956
@<TRIPOS>BOND
     1    14    15    1
     2    15     8    1
     3     8     9   ar
     4     9    10   ar
     5    10    11   ar
     6    11     7    1
     7     7     6    1
     8     6     4    1
     9     4     5    1
    10     4     3    1
    11     3     2    1
    12     2     1    1
    13     1    18    1
    14    18    32    1
    15    32    33    3
    16    18    19    1
    17    19    20   ar
    18    20    21   ar
    19    21    22   ar
    20    22    25    1
    21    25    26    1
    22    22    23   ar
    23    23    27    1
    24    27    28    1
    25    23    24   ar
    26    18    29    1
    27    29    30    1
    28    29    31    1
    29    11    12   ar
    30    12    13   ar
    31    13    16    1
    32    16    17    1
    33    13     8   ar
    34    24    19   ar
@<TRIPOS>MOLECULE
*****
 33 34 0 0 0
SMALL
GASTEIGER

@<TRIPOS>ATOM
      1 C         140.3059  140.3138  166.9309 C.3     1  UNL1        0.0197
      2 C         138.9813  139.6722  167.2198 C.3     1  UNL1        0.0187
      3 C         138.1870  139.0571  166.1058 C.3     1  UNL1        0.0722
      4 N         138.8852  138.5441  164.8814 N.3     1  UNL1       -0.2712
      5 C         138.6415  139.1938  163.5514 C.3     1  UNL1        0.0896
      6 C         139.8271  137.3814  164.9867 C.3     1  UNL1        0.0768
      7 C         140.7863  137.0898  163.8711 C.3     1  UNL1        0.0438
      8 C         144.3638  139.7429  163.2284 C.ar    1  UNL1        0.1724
      9 C         143.8753  139.4664  164.6194 C.ar    1  UNL1        0.0397
     10 C         142.6828  138.5821  164.8336 C.ar    1  UNL1       -0.0009
     11 C         141.9788  137.9742  163.6569 C.ar    1  UNL1       -0.0176
     12 C         142.4673  138.2506  162.2659 C.ar    1  UNL1        0.0358
     13 C         143.6598  139.1350  162.0517 C.ar    1  UNL1        0.1721
     14 C         145.7217  141.8742  163.8313 C.3     1  UNL1        0.2526
     15 O         145.5563  140.6272  163.0142 O.3     1  UNL1       -0.4684
     16 O         144.1483  139.4114  160.6606 O.3     1  UNL1       -0.4684
     17 C         143.7020  140.6496  159.9412 C.3     1  UNL1        0.2526
     18 C         140.8368  141.3811  167.8415 C.3     1  UNL1        0.0981
     19 C         140.9982  142.3017  166.6683 C.ar    1  UNL1       -0.0065
     20 C         142.3322  142.4318  165.9949 C.ar    1  UNL1        0.0000
     21 C         142.4936  143.3524  164.8217 C.ar    1  UNL1        0.0398
     22 C         141.3210  144.1430  164.3219 C.ar    1  UNL1        0.1724
     23 C         139.9870  144.0130  164.9953 C.ar    1  UNL1        0.1721
     24 C         139.8256  143.0924  166.1685 C.ar    1  UNL1        0.0367
     25 O         141.4823  145.0637  163.1487 O.3     1  UNL1       -0.4684
     26 C         141.4496  144.5136  161.7536 C.3     1  UNL1        0.2526
     27 O         138.8142  144.8037  164.4955 O.3     1  UNL1       -0.4684
     28 C         137.9832  144.2779  163.3629 C.3     1  UNL1        0.2526
     29 C         141.3677  142.4484  168.7520 C.3     1  UNL1        0.0169
     30 C         142.8251  142.4759  169.1056 C.3     1  UNL1        0.0014
     31 C         140.4410  143.4881  169.3091 C.3     1  UNL1        0.0014
     32 C         140.6754  140.4604  169.0146 C.1     1  UNL1        0.0752
     33 N         140.5140  139.5398  170.1878 N.1     1  UNL1       -0.1956
@<TRIPOS>BOND
     1    14    15    1
     2    15     8    1
     3     8     9   ar
     4     9    10   ar
     5    10    11   ar
     6    11     7    1
     7     7     6    1
     8     6     4    1
     9     4     5    1
    10     4     3    1
    11     3     2    1
    12     2     1    1
    13     1    18    1
    14    18    32    1
    15    32    33    3
    16    18    19    1
    17    19    20   ar
    18    20    21   ar
    19    21    22   ar
    20    22    25    1
    21    25    26    1
    22    22    23   ar
    23    23    27    1
    24    27    28    1
    25    23    24   ar
    26    18    29    1
    27    29    30    1
    28    29    31    1
    29    11    12   ar
    30    12    13   ar
    31    13    16    1
    32    16    17    1
    33    13     8   ar
    34    24    19   ar
@<TRIPOS>MOLECULE
*****
 33 34 0 0 0
SMALL
GASTEIGER

@<TRIPOS>ATOM
      1 C         139.6482  140.3188  167.0467 C.3     1  UNL1        0.0197
      2 C         138.8693  139.0578  166.8159 C.3     1  UNL1        0.0187
      3 C         138.3454  138.7397  165.4469 C.3     1  UNL1        0.0722
      4 N         139.2791  138.2427  164.3833 N.3     1  UNL1       -0.2712
      5 C         140.4317  137.3563  164.7516 C.3     1  UNL1        0.0896
      6 C         139.0601  138.6321  162.9514 C.3     1  UNL1        0.0768
      7 C         137.8867  139.4887  162.5781 C.3     1  UNL1        0.0438
      8 C         138.3868  143.9437  162.1876 C.ar    1  UNL1        0.1724
      9 C         138.7033  143.0488  161.0262 C.ar    1  UNL1        0.0397
     10 C         138.5366  141.5638  161.1563 C.ar    1  UNL1       -0.0009
     11 C         138.0534  140.9737  162.4479 C.ar    1  UNL1       -0.0176
     12 C         137.7369  141.8686  163.6093 C.ar    1  UNL1        0.0358
     13 C         137.9036  143.3536  163.4792 C.ar    1  UNL1        0.1721
     14 C         139.9278  146.0277  162.0078 C.3     1  UNL1        0.2526
     15 O         138.5535  145.4288  162.0574 O.3     1  UNL1       -0.4684
     16 O         137.5871  144.2485  164.6407 O.3     1  UNL1       -0.4684
     17 C         138.6985  144.8720  165.4318 C.3     1  UNL1        0.2526
     18 C         140.7984  140.3243  168.0095 C.3     1  UNL1        0.0981
     19 C         141.7590  140.4197  166.8614 C.ar    1  UNL1       -0.0065
     20 C         142.7170  139.2979  166.5900 C.ar    1  UNL1        0.0000
     21 C         143.6776  139.3932  165.4418 C.ar    1  UNL1        0.0398
     22 C         143.6802  140.6103  164.5652 C.ar    1  UNL1        0.1724
     23 C         142.7221  141.7321  164.8366 C.ar    1  UNL1        0.1721
     24 C         141.7615  141.6368  165.9847 C.ar    1  UNL1        0.0367
     25 O         144.6408  140.7056  163.4171 O.3     1  UNL1       -0.4684
     26 C         145.8112  141.6406  163.4941 C.3     1  UNL1        0.2526
     27 O         142.7246  142.9493  163.9599 O.3     1  UNL1       -0.4684
     28 C         142.0400  142.9141  162.6258 C.3     1  UNL1        0.2526
     29 C         141.9486  140.3299  168.9723 C.3     1  UNL1        0.0169
     30 C         142.2991  139.0833  169.7292 C.3     1  UNL1        0.0014
     31 C         142.7482  141.5822  169.1782 C.3     1  UNL1        0.0014
     32 C         139.8378  140.2290  169.1576 C.1     1  UNL1        0.0752
     33 N         138.8772  140.1337  170.3057 N.1     1  UNL1       -0.1956
@<TRIPOS>BOND
     1    14    15    1
     2    15     8    1
     3     8     9   ar
     4     9    10   ar
     5    10    11   ar
     6    11     7    1
     7     7     6    1
     8     6     4    1
     9     4     5    1
    10     4     3    1
    11     3     2    1
    12     2     1    1
    13     1    18    1
    14    18    32    1
    15    32    33    3
    16    18    19    1
    17    19    20   ar
    18    20    21   ar
    19    21    22   ar
    20    22    25    1
    21    25    26    1
    22    22    23   ar
    23    23    27    1
    24    27    28    1
    25    23    24   ar
    26    18    29    1
    27    29    30    1
    28    29    31    1
    29    11    12   ar
    30    12    13   ar
    31    13    16    1
    32    16    17    1
    33    13     8   ar
    34    24    19   ar
@<TRIPOS>MOLECULE
*****
 33 34 0 0 0
SMALL
GASTEIGER

@<TRIPOS>ATOM
      1 C         139.8724  141.4014  163.4292 C.3     1  UNL1        0.0197
      2 C         138.5772  140.6485  163.5040 C.3     1  UNL1        0.0187
      3 C         138.5607  139.2314  163.9955 C.3     1  UNL1        0.0722
      4 N         139.0697  138.9080  165.3689 N.3     1  UNL1       -0.2712
      5 C         138.1063  138.7475  166.5074 C.3     1  UNL1        0.0896
      6 C         140.5422  138.7449  165.6039 C.3     1  UNL1        0.0768
      7 C         141.3179  137.7256  164.8234 C.3     1  UNL1        0.0438
      8 C         143.4145  138.9187  161.0246 C.ar    1  UNL1        0.1724
      9 C         142.2318  137.9977  160.9710 C.ar    1  UNL1        0.0397
     10 C         141.5329  137.6000  162.2373 C.ar    1  UNL1       -0.0009
     11 C         142.0168  138.1233  163.5571 C.ar    1  UNL1       -0.0176
     12 C         143.1995  139.0442  163.6107 C.ar    1  UNL1        0.0358
     13 C         143.8984  139.4419  162.3445 C.ar    1  UNL1        0.1721
     14 C         143.6584  140.5273  158.9991 C.3     1  UNL1        0.2526
     15 O         144.1134  139.3164  159.7584 O.3     1  UNL1       -0.4684
     16 O         145.0811  140.3630  162.3981 O.3     1  UNL1       -0.4684
     17 C         144.8768  141.8487  162.3680 C.3     1  UNL1        0.2526
     18 C         139.9299  142.8389  163.8537 C.3     1  UNL1        0.0981
     19 C         140.7173  142.4484  165.0693 C.ar    1  UNL1       -0.0065
     20 C         142.1897  142.1856  164.9566 C.ar    1  UNL1        0.0000
     21 C         142.9771  141.7951  166.1721 C.ar    1  UNL1        0.0398
     22 C         142.2921  141.6675  167.5004 C.ar    1  UNL1        0.1724
     23 C         140.8196  141.9304  167.6131 C.ar    1  UNL1        0.1721
     24 C         140.0322  142.3208  166.3976 C.ar    1  UNL1        0.0367
     25 O         143.0795  141.2770  168.7159 O.3     1  UNL1       -0.4684
     26 C         143.5983  142.3342  169.6450 C.3     1  UNL1        0.2526
     27 O         140.1345  141.8027  168.9414 O.3     1  UNL1       -0.4684
     28 C         139.6456  140.4635  169.4076 C.3     1  UNL1        0.2526
     29 C         139.9874  144.2764  164.2783 C.3     1  UNL1        0.0169
     30 C         138.8536  144.8744  165.0572 C.3     1  UNL1        0.0014
     31 C         141.1789  145.1160  163.9238 C.3     1  UNL1        0.0014
     32 C         139.1425  143.2294  162.6382 C.1     1  UNL1        0.0752
     33 N         138.3551  143.6198  161.4227 N.1     1  UNL1       -0.1956
@<TRIPOS>BOND
     1    14    15    1
     2    15     8    1
     3     8     9   ar
     4     9    10   ar
     5    10    11   ar
     6    11     7    1
     7     7     6    1
     8     6     4    1
     9     4     5    1
    10     4     3    1
    11     3     2    1
    12     2     1    1
    13     1    18    1
    14    18    32    1
    15    32    33    3
    16    18    19    1
    17    19    20   ar
    18    20    21   ar
    19    21    22   ar
    20    22    25    1
    21    25    26    1
    22    22    23   ar
    23    23    27    1
    24    27    28    1
    25    23    24   ar
    26    18    29    1
    27    29    30    1
    28    29    31    1
    29    11    12   ar
    30    12    13   ar
    31    13    16    1
    32    16    17    1
    33    13     8   ar
    34    24    19   ar
@<TRIPOS>MOLECULE
*****
 33 34 0 0 0
SMALL
GASTEIGER

@<TRIPOS>ATOM
      1 C         142.4554  142.9767  166.6191 C.3     1  UNL1        0.0197
      2 C         143.7824  142.5102  166.0981 C.3     1  UNL1        0.0187
      3 C         144.5146  143.3253  165.0737 C.3     1  UNL1        0.0722
      4 N         144.7007  142.7920  163.6841 N.3     1  UNL1       -0.2712
      5 C         143.8920  143.3515  162.5514 C.3     1  UNL1        0.0896
      6 C         145.6954  141.6990  163.4272 C.3     1  UNL1        0.0768
      7 C         145.5469  140.3733  164.1130 C.3     1  UNL1        0.0438
      8 C         141.9319  137.8167  163.3092 C.ar    1  UNL1        0.1724
      9 C         142.2349  138.2690  164.7069 C.ar    1  UNL1        0.0397
     10 C         143.4398  139.1212  164.9748 C.ar    1  UNL1       -0.0009
     11 C         144.3419  139.5211  163.8451 C.ar    1  UNL1       -0.0176
     12 C         144.0389  139.0688  162.4474 C.ar    1  UNL1        0.0358
     13 C         142.8339  138.2166  162.1794 C.ar    1  UNL1        0.1721
     14 C         139.3939  137.6067  162.7951 C.3     1  UNL1        0.2526
     15 O         140.7269  136.9646  163.0412 O.3     1  UNL1       -0.4684
     16 O         142.5310  137.7643  160.7816 O.3     1  UNL1       -0.4684
     17 C         141.6556  138.6005  159.8959 C.3     1  UNL1        0.2526
     18 C         141.7120  142.1495  167.6256 C.3     1  UNL1        0.0981
     19 C         140.5975  141.9531  166.6410 C.ar    1  UNL1       -0.0065
     20 C         140.1415  140.5677  166.2908 C.ar    1  UNL1        0.0000
     21 C         139.0270  140.3713  165.3063 C.ar    1  UNL1        0.0398
     22 C         138.3686  141.5604  164.6718 C.ar    1  UNL1        0.1724
     23 C         138.8246  142.9458  165.0219 C.ar    1  UNL1        0.1721
     24 C         139.9391  143.1422  166.0065 C.ar    1  UNL1        0.0367
     25 O         137.2541  141.3640  163.6872 O.3     1  UNL1       -0.4684
     26 C         137.5655  141.1345  162.2379 C.3     1  UNL1        0.2526
     27 O         138.1662  144.1349  164.3874 O.3     1  UNL1       -0.4684
     28 C         138.6801  144.6699  163.0837 C.3     1  UNL1        0.2526
     29 C         140.9685  141.3223  168.6320 C.3     1  UNL1        0.0169
     30 C         139.8344  141.9247  169.4072 C.3     1  UNL1        0.0014
     31 C         141.3592  139.8926  168.8634 C.3     1  UNL1        0.0014
     32 C         142.8264  142.3459  168.6101 C.1     1  UNL1        0.0752
     33 N         143.9409  142.5422  169.5947 N.1     1  UNL1       -0.1956
@<TRIPOS>BOND
     1    14    15    1
     2    15     8    1
     3     8     9   ar
     4     9    10   ar
     5    10    11   ar
     6    11     7    1
     7     7     6    1
     8     6     4    1
     9     4     5    1
    10     4     3    1
    11     3     2    1
    12     2     1    1
    13     1    18    1
    14    18    32    1
    15    32    33    3
    16    18    19    1
    17    19    20   ar
    18    20    21   ar
    19    21    22   ar
    20    22    25    1
    21    25    26    1
    22    22    23   ar
    23    23    27    1
    24    27    28    1
    25    23    24   ar
    26    18    29    1
    27    29    30    1
    28    29    31    1
    29    11    12   ar
    30    12    13   ar
    31    13    16    1
    32    16    17    1
    33    13     8   ar
    34    24    19   ar
@<TRIPOS>MOLECULE
*****
 33 34 0 0 0
SMALL
GASTEIGER

@<TRIPOS>ATOM
      1 C         142.4463  141.3670  163.5241 C.3     1  UNL1        0.0197
      2 C         143.2683  140.1316  163.3052 C.3     1  UNL1        0.0187
      3 C         142.5984  138.7934  163.2033 C.3     1  UNL1        0.0722
      4 N         142.2338  138.0404  164.4483 N.3     1  UNL1       -0.2712
      5 C         142.9504  138.3263  165.7347 C.3     1  UNL1        0.0896
      6 C         141.1526  137.0015  164.4070 C.3     1  UNL1        0.0768
      7 C         139.7494  137.3636  164.7941 C.3     1  UNL1        0.0438
      8 C         137.8102  141.0319  163.0524 C.ar    1  UNL1        0.1724
      9 C         138.3821  141.0723  164.4385 C.ar    1  UNL1        0.0397
     10 C         139.0285  139.8495  165.0191 C.ar    1  UNL1       -0.0009
     11 C         139.1030  138.5864  164.2136 C.ar    1  UNL1       -0.0176
     12 C         138.5311  138.5460  162.8275 C.ar    1  UNL1        0.0358
     13 C         137.8847  139.7688  162.2469 C.ar    1  UNL1        0.1721
     14 C         137.7337  143.6122  162.7587 C.3     1  UNL1        0.2526
     15 O         137.1638  142.2546  162.4719 O.3     1  UNL1       -0.4684
     16 O         137.3128  139.7283  160.8608 O.3     1  UNL1       -0.4684
     17 C         138.1822  140.0483  159.6811 C.3     1  UNL1        0.2526
     18 C         143.1021  142.6300  163.9982 C.3     1  UNL1        0.0981
     19 C         142.3442  142.5388  165.2894 C.ar    1  UNL1       -0.0065
     20 C         140.9944  143.1812  165.4137 C.ar    1  UNL1        0.0000
     21 C         140.2364  143.0900  166.7049 C.ar    1  UNL1        0.0398
     22 C         140.8282  142.3565  167.8718 C.ar    1  UNL1        0.1724
     23 C         142.1780  141.7141  167.7475 C.ar    1  UNL1        0.1721
     24 C         142.9359  141.8053  166.4563 C.ar    1  UNL1        0.0367
     25 O         140.0702  142.2653  169.1630 O.3     1  UNL1       -0.4684
     26 C         140.3450  143.2454  170.2648 C.3     1  UNL1        0.2526
     27 O         142.7698  140.9806  168.9144 O.3     1  UNL1       -0.4684
     28 C         142.3637  139.5639  169.1939 C.3     1  UNL1        0.2526
     29 C         143.7580  143.8929  164.4724 C.3     1  UNL1        0.0169
     30 C         143.3553  145.2132  163.8854 C.3     1  UNL1        0.0014
     31 C         144.8166  143.8355  165.5337 C.3     1  UNL1        0.0014
     32 C         143.8601  142.7212  162.7071 C.1     1  UNL1        0.0752
     33 N         144.6181  142.8123  161.4159 N.1     1  UNL1       -0.1956
@<TRIPOS>BOND
     1    14    15    1
     2    15     8    1
     3     8     9   ar
     4     9    10   ar
     5    10    11   ar
     6    11     7    1
     7     7     6    1
     8     6     4    1
     9     4     5    1
    10     4     3    1
    11     3     2    1
    12     2     1    1
    13     1    18    1
    14    18    32    1
    15    32    33    3
    16    18    19    1
    17    19    20   ar
    18    20    21   ar
    19    21    22   ar
    20    22    25    1
    21    25    26    1
    22    22    23   ar
    23    23    27    1
    24    27    28    1
    25    23    24   ar
    26    18    29    1
    27    29    30    1
    28    29    31    1
    29    11    12   ar
    30    12    13   ar
    31    13    16    1
    32    16    17    1
    33    13     8   ar
    34    24    19   ar
@<TRIPOS>MOLECULE
*****
 33 34 0 0 0
SMALL
GASTEIGER

@<TRIPOS>ATOM
      1 C         139.3774  141.2613  164.0740 C.3     1  UNL1        0.0197
      2 C         138.0003  141.8329  164.2381 C.3     1  UNL1        0.0187
      3 C         137.6515  143.1443  163.5989 C.3     1  UNL1        0.0722
      4 N         138.5369  144.3376  163.8040 N.3     1  UNL1       -0.2712
      5 C         138.7585  144.8784  165.1855 C.3     1  UNL1        0.0896
      6 C         139.2006  144.9901  162.6277 C.3     1  UNL1        0.0768
      7 C         140.5581  145.6095  162.7809 C.3     1  UNL1        0.0438
      8 C         144.2030  142.9902  163.1030 C.ar    1  UNL1        0.1724
      9 C         144.0348  144.1584  164.0287 C.ar    1  UNL1        0.0397
     10 C         142.8198  145.0315  163.9213 C.ar    1  UNL1       -0.0009
     11 C         141.7731  144.7364  162.8883 C.ar    1  UNL1       -0.0176
     12 C         141.9413  143.5682  161.9626 C.ar    1  UNL1        0.0358
     13 C         143.1563  142.6950  162.0700 C.ar    1  UNL1        0.1721
     14 C         145.3455  140.8200  163.9602 C.3     1  UNL1        0.2526
     15 O         145.4180  142.1171  163.2104 O.3     1  UNL1       -0.4684
     16 O         143.3245  141.5268  161.1443 O.3     1  UNL1       -0.4684
     17 C         144.0179  141.7077  159.8266 C.3     1  UNL1        0.2526
     18 C         139.6206  139.8043  164.3347 C.3     1  UNL1        0.0981
     19 C         140.4826  140.1585  165.5101 C.ar    1  UNL1       -0.0065
     20 C         141.7625  140.9123  165.3015 C.ar    1  UNL1        0.0000
     21 C         142.6244  141.2666  166.4769 C.ar    1  UNL1        0.0398
     22 C         142.2064  140.8670  167.8609 C.ar    1  UNL1        0.1724
     23 C         140.9265  140.1133  168.0696 C.ar    1  UNL1        0.1721
     24 C         140.0646  139.7590  166.8942 C.ar    1  UNL1        0.0367
     25 O         143.0684  141.2213  169.0363 O.3     1  UNL1       -0.4684
     26 C         142.8666  142.5261  169.7482 C.3     1  UNL1        0.2526
     27 O         140.5085  139.7137  169.4537 O.3     1  UNL1       -0.4684
     28 C         139.4357  140.4839  170.1648 C.3     1  UNL1        0.2526
     29 C         139.8639  138.3473  164.5955 C.3     1  UNL1        0.0169
     30 C         138.7809  137.5021  165.1978 C.3     1  UNL1        0.0014
     31 C         141.1902  137.7354  164.2539 C.3     1  UNL1        0.0014
     32 C         138.7587  139.4500  163.1593 C.1     1  UNL1        0.0752
     33 N         137.8967  139.0957  161.9839 N.1     1  UNL1       -0.1956
@<TRIPOS>BOND
     1    14    15    1
     2    15     8    1
     3     8     9   ar
     4     9    10   ar
     5    10    11   ar
     6    11     7    1
     7     7     6    1
     8     6     4    1
     9     4     5    1
    10     4     3    1
    11     3     2    1
    12     2     1    1
    13     1    18    1
    14    18    32    1
    15    32    33    3
    16    18    19    1
    17    19    20   ar
    18    20    21   ar
    19    21    22   ar
    20    22    25    1
    21    25    26    1
    22    22    23   ar
    23    23    27    1
    24    27    28    1
    25    23    24   ar
    26    18    29    1
    27    29    30    1
    28    29    31    1
    29    11    12   ar
    30    12    13   ar
    31    13    16    1
    32    16    17    1
    33    13     8   ar
    34    24    19   ar
@<TRIPOS>MOLECULE
*****
 33 34 0 0 0
SMALL
GASTEIGER

@<TRIPOS>ATOM
      1 C         142.8694  141.9304  164.5809 C.3     1  UNL1        0.0197
      2 C         141.6956  142.6374  163.9709 C.3     1  UNL1        0.0187
      3 C         141.5168  144.1120  164.1797 C.3     1  UNL1        0.0722
      4 N         140.2191  144.7693  163.8141 N.3     1  UNL1       -0.2712
      5 C         140.0614  145.4239  162.4737 C.3     1  UNL1        0.0896
      6 C         139.0790  144.7722  164.7890 C.3     1  UNL1        0.0768
      7 C         137.8272  144.0054  164.4812 C.3     1  UNL1        0.0438
      8 C         138.0957  139.8630  162.7437 C.ar    1  UNL1        0.1724
      9 C         138.2209  140.0647  164.2247 C.ar    1  UNL1        0.0397
     10 C         138.1314  141.4455  164.8039 C.ar    1  UNL1       -0.0009
     11 C         137.9167  142.6246  163.9020 C.ar    1  UNL1       -0.0176
     12 C         137.7915  142.4230  162.4210 C.ar    1  UNL1        0.0358
     13 C         137.8810  141.0422  161.8418 C.ar    1  UNL1        0.1721
     14 C         139.4355  138.0434  161.4617 C.3     1  UNL1        0.2526
     15 O         138.1852  138.4823  162.1645 O.3     1  UNL1       -0.4684
     16 O         137.7558  140.8406  160.3606 O.3     1  UNL1       -0.4684
     17 C         138.7215  141.5101  159.4283 C.3     1  UNL1        0.2526
     18 C         142.7869  140.4637  164.8842 C.3     1  UNL1        0.0981
     19 C         142.1902  140.7745  166.2249 C.ar    1  UNL1       -0.0065
     20 C         140.8858  140.1530  166.6276 C.ar    1  UNL1        0.0000
     21 C         140.2891  140.4638  167.9682 C.ar    1  UNL1        0.0398
     22 C         140.9968  141.3962  168.9062 C.ar    1  UNL1        0.1724
     23 C         142.3012  142.0177  168.5035 C.ar    1  UNL1        0.1721
     24 C         142.8979  141.7069  167.1628 C.ar    1  UNL1        0.0367
     25 O         140.4001  141.7070  170.2468 O.3     1  UNL1       -0.4684
     26 C         140.8991  141.0000  171.4720 C.3     1  UNL1        0.2526
     27 O         143.0090  142.9501  169.4414 O.3     1  UNL1       -0.4684
     28 C         144.3123  142.5429  170.0622 C.3     1  UNL1        0.2526
     29 C         142.7043  138.9970  165.1875 C.3     1  UNL1        0.0169
     30 C         141.6864  138.1432  164.4911 C.3     1  UNL1        0.0014
     31 C         143.6396  138.3840  166.1873 C.3     1  UNL1        0.0014
     32 C         143.3835  140.1528  163.5435 C.1     1  UNL1        0.0752
     33 N         143.9802  139.8420  162.2029 N.1     1  UNL1       -0.1956
@<TRIPOS>BOND
     1    14    15    1
     2    15     8    1
     3     8     9   ar
     4     9    10   ar
     5    10    11   ar
     6    11     7    1
     7     7     6    1
     8     6     4    1
     9     4     5    1
    10     4     3    1
    11     3     2    1
    12     2     1    1
    13     1    18    1
    14    18    32    1
    15    32    33    3
    16    18    19    1
    17    19    20   ar
    18    20    21   ar
    19    21    22   ar
    20    22    25    1
    21    25    26    1
    22    22    23   ar
    23    23    27    1
    24    27    28    1
    25    23    24   ar
    26    18    29    1
    27    29    30    1
    28    29    31    1
    29    11    12   ar
    30    12    13   ar
    31    13    16    1
    32    16    17    1
    33    13     8   ar
    34    24    19   ar
