@<TRIPOS>MOLECULE
*****
 38 42 0 0 0
SMALL
GASTEIGER

@<TRIPOS>ATOM
      1 C         143.5655  139.5962  160.8824 C.2     1  UNL1        0.0381
      2 C         143.3348  138.1867  161.3410 C.2     1  UNL1        0.1000
      3 N         142.9299  137.3718  160.1486 N.2     1  UNL1       -0.2461
      4 C         142.9103  138.2776  158.9531 C.2     1  UNL1        0.0811
      5 C         142.5854  138.0282  157.5100 C.3     1  UNL1        0.1346
      6 C         142.6534  139.1535  156.5206 C.2     1  UNL1       -0.0009
      7 C         143.0463  140.5282  156.9742 C.2     1  UNL1       -0.0025
      8 C         143.3711  140.7776  158.4172 C.2     1  UNL1        0.0011
      9 C         143.3031  139.6524  159.4066 C.2     1  UNL1        0.0184
     10 C         143.7824  143.2495  162.4174 C.ar    1  UNL1        0.2208
     11 N         144.8237  143.0499  163.4784 N.ar    1  UNL1       -0.2120
     12 C         145.4456  141.6990  163.6740 C.ar    1  UNL1        0.1034
     13 C         145.0262  140.5478  162.8087 C.ar    1  UNL1        0.0400
     14 C         143.9849  140.7474  161.7477 C.ar    1  UNL1        0.0873
     15 N         143.3630  142.0983  161.5521 N.ar    1  UNL1       -0.2135
     16 N         143.1605  144.6004  162.2217 N.pl3   1  UNL1       -0.2776
     17 H         143.7221  145.4087  162.2436 H       1  UNL1        0.1552
     18 C         141.0197  145.1374  160.7136 C.ar    1  UNL1        0.2571
     19 N         139.5360  145.1182  160.9330 N.ar    1  UNL1       -0.1301
     20 N         139.2821  144.6888  162.3476 N.ar    1  UNL1       -0.2432
     21 C         137.9374  144.5330  162.9938 C.3     1  UNL1        0.1539
     22 C         140.6088  144.4426  163.0025 C.ar    1  UNL1        0.1146
     23 C         141.6829  144.7198  161.9927 C.ar    1  UNL1        0.1248
     24 C         141.9855  144.4627  158.3980 C.3     1  UNL1        0.2543
     25 O         141.7179  145.5089  159.4390 O.3     1  UNL1       -0.4543
     26 N         142.1926  136.6534  157.0565 N.am    1  UNL1       -0.2964
     27 C         143.1080  135.8676  156.1652 C.2     1  UNL1        0.2374
     28 O         144.4163  136.4566  155.7274 O.2     1  UNL1       -0.2736
     29 H         141.3340  136.2668  157.3438 H       1  UNL1        0.1501
     30 C         142.7152  134.4928  155.7116 C.3     1  UNL1        0.1349
     31 C         141.7793  134.3246  154.5516 C.3     1  UNL1        0.0272
     32 N         143.2584  133.2862  156.4181 N.3     1  UNL1       -0.2641
     33 C         144.4588  133.4154  157.3082 C.3     1  UNL1        0.0900
     34 C         145.0020  132.2089  158.0147 C.3     1  UNL1        0.0897
     35 N         144.3448  130.8731  157.8311 N.3     1  UNL1       -0.2691
     36 C         144.8879  129.6665  158.5376 C.3     1  UNL1        0.0897
     37 C         143.1443  130.7439  156.9410 C.3     1  UNL1        0.0897
     38 C         142.6012  131.9504  156.2345 C.3     1  UNL1        0.0900
@<TRIPOS>BOND
     1    24    25    1
     2    25    18    1
     3    18    19   ar
     4    19    20   ar
     5    20    21    1
     6    20    22   ar
     7    22    23   ar
     8    23    16    1
     9    16    10    1
    10    10    11   ar
    11    11    12   ar
    12    12    13   ar
    13    13    14   ar
    14    14     1    1
    15     1     2    2
    16     2     3    1
    17     3     4    2
    18     4     5    1
    19     5    26    1
    20    26    27   am
    21    27    28    2
    22    27    30    1
    23    30    31    1
    24    30    32    1
    25    32    33    1
    26    33    34    1
    27    34    35    1
    28    35    36    1
    29    35    37    1
    30    37    38    1
    31     5     6    1
    32     6     7    2
    33     7     8    1
    34     8     9    2
    35    14    15   ar
    36    23    18   ar
    37    15    10   ar
    38     9     1    1
    39     9     4    1
    40    38    32    1
    41    16    17    1
    42    26    29    1
@<TRIPOS>MOLECULE
*****
 38 42 0 0 0
SMALL
GASTEIGER

@<TRIPOS>ATOM
      1 C         142.1410  138.0640  159.4801 C.2     1  UNL1        0.0381
      2 C         142.8046  137.4800  160.6920 C.2     1  UNL1        0.1000
      3 N         141.8556  137.6071  161.8466 N.2     1  UNL1       -0.2461
      4 C         140.6055  138.2697  161.3483 C.2     1  UNL1        0.0811
      5 C         139.3293  138.6523  162.0375 C.3     1  UNL1        0.1346
      6 C         138.2295  139.3174  161.2641 C.2     1  UNL1       -0.0009
      7 C         138.4059  139.5997  159.8015 C.2     1  UNL1       -0.0025
      8 C         139.6821  139.2171  159.1124 C.2     1  UNL1        0.0011
      9 C         140.7819  138.5520  159.8858 C.2     1  UNL1        0.0184
     10 C         143.6838  136.9715  155.9906 C.ar    1  UNL1        0.2208
     11 N         143.9160  138.3088  155.3522 N.ar    1  UNL1       -0.2120
     12 C         143.5565  139.5645  156.0897 C.ar    1  UNL1        0.1034
     13 C         142.9649  139.4829  157.4657 C.ar    1  UNL1        0.0400
     14 C         142.7326  138.1456  158.1042 C.ar    1  UNL1        0.0873
     15 N         143.0921  136.8899  157.3666 N.ar    1  UNL1       -0.2135
     16 N         144.0432  135.7158  155.2531 N.pl3   1  UNL1       -0.2776
     17 H         144.7897  135.7185  154.6112 H       1  UNL1        0.1552
     18 C         143.4554  133.5077  156.6402 C.ar    1  UNL1        0.2571
     19 N         142.4685  132.3889  156.4849 N.ar    1  UNL1       -0.1301
     20 N         141.6684  132.6457  155.2424 N.ar    1  UNL1       -0.2432
     21 C         140.5689  131.7774  154.7066 C.3     1  UNL1        0.1539
     22 C         142.1609  133.9231  154.6297 C.ar    1  UNL1        0.1146
     23 C         143.2654  134.4560  155.4936 C.ar    1  UNL1        0.1248
     24 C         145.3011  132.4815  158.1536 C.3     1  UNL1        0.2543
     25 O         144.4567  133.6529  157.7477 O.3     1  UNL1       -0.4543
     26 N         139.1529  138.3700  163.5001 N.am    1  UNL1       -0.2964
     27 C         139.2891  139.4798  164.5000 C.2     1  UNL1        0.2374
     28 O         139.6016  140.8720  164.0372 O.2     1  UNL1       -0.2736
     29 H         138.9478  137.4562  163.8038 H       1  UNL1        0.1501
     30 C         139.1127  139.1975  165.9625 C.3     1  UNL1        0.1349
     31 C         137.9102  138.4388  166.4403 C.3     1  UNL1        0.0272
     32 N         140.1390  139.6738  166.9474 N.3     1  UNL1       -0.2641
     33 C         139.7060  140.2343  168.2697 C.3     1  UNL1        0.0900
     34 C         140.7322  140.7107  169.2546 C.3     1  UNL1        0.0897
     35 N         142.1913  140.6265  168.9172 N.3     1  UNL1       -0.2691
     36 C         143.2175  141.1029  169.9021 C.3     1  UNL1        0.0897
     37 C         142.6242  140.0660  167.5950 C.3     1  UNL1        0.0897
     38 C         141.5981  139.5897  166.6101 C.3     1  UNL1        0.0900
@<TRIPOS>BOND
     1    24    25    1
     2    25    18    1
     3    18    19   ar
     4    19    20   ar
     5    20    21    1
     6    20    22   ar
     7    22    23   ar
     8    23    16    1
     9    16    10    1
    10    10    11   ar
    11    11    12   ar
    12    12    13   ar
    13    13    14   ar
    14    14     1    1
    15     1     2    2
    16     2     3    1
    17     3     4    2
    18     4     5    1
    19     5    26    1
    20    26    27   am
    21    27    28    2
    22    27    30    1
    23    30    31    1
    24    30    32    1
    25    32    33    1
    26    33    34    1
    27    34    35    1
    28    35    36    1
    29    35    37    1
    30    37    38    1
    31     5     6    1
    32     6     7    2
    33     7     8    1
    34     8     9    2
    35    14    15   ar
    36    23    18   ar
    37    15    10   ar
    38     9     1    1
    39     9     4    1
    40    38    32    1
    41    16    17    1
    42    26    29    1
@<TRIPOS>MOLECULE
*****
 38 42 0 0 0
SMALL
GASTEIGER

@<TRIPOS>ATOM
      1 C         143.7284  140.5277  160.4513 C.2     1  UNL1        0.0381
      2 C         143.6911  139.0435  160.6655 C.2     1  UNL1        0.1000
      3 N         143.4333  138.3902  159.3401 N.2     1  UNL1       -0.2461
      4 C         143.3112  139.4708  158.3067 C.2     1  UNL1        0.0811
      5 C         143.0576  139.4224  156.8291 C.3     1  UNL1        0.1346
      6 C         142.9863  140.6949  156.0383 C.2     1  UNL1       -0.0009
      7 C         143.1686  142.0159  156.7251 C.2     1  UNL1       -0.0025
      8 C         143.4223  142.0643  158.2027 C.2     1  UNL1        0.0011
      9 C         143.4936  140.7917  158.9935 C.2     1  UNL1        0.0184
     10 C         143.3870  143.8698  162.5641 C.ar    1  UNL1        0.2208
     11 N         144.4225  143.6416  163.6250 N.ar    1  UNL1       -0.2120
     12 C         145.2267  142.3753  163.6280 C.ar    1  UNL1        0.1034
     13 C         144.9953  141.3374  162.5701 C.ar    1  UNL1        0.0400
     14 C         143.9598  141.5656  161.5092 C.ar    1  UNL1        0.0873
     15 N         143.1556  142.8319  161.5062 N.ar    1  UNL1       -0.2135
     16 N         142.5829  145.1360  162.5611 N.pl3   1  UNL1       -0.2776
     17 H         143.0289  146.0021  162.4185 H       1  UNL1        0.1552
     18 C         140.0491  145.4320  161.7627 C.ar    1  UNL1        0.2571
     19 N         138.7060  145.2360  162.4013 N.ar    1  UNL1       -0.1301
     20 N         138.9261  144.7657  163.8085 N.ar    1  UNL1       -0.2432
     21 C         137.8551  144.4461  164.8089 C.3     1  UNL1        0.1539
     22 C         140.4051  144.6710  164.0397 C.ar    1  UNL1        0.1146
     23 C         141.0992  145.0828  162.7753 C.ar    1  UNL1        0.1248
     24 C         140.8490  144.9420  159.3399 C.3     1  UNL1        0.2543
     25 O         140.2983  145.8958  160.3581 O.3     1  UNL1       -0.4543
     26 N         142.8752  138.1013  156.1423 N.am    1  UNL1       -0.2964
     27 C         141.6292  137.2998  156.3769 C.2     1  UNL1        0.2374
     28 O         140.5656  137.8193  157.2982 O.2     1  UNL1       -0.2736
     29 H         143.5733  137.7604  155.5376 H       1  UNL1        0.1501
     30 C         141.4468  135.9788  155.6901 C.3     1  UNL1        0.1349
     31 C         140.5300  135.8682  154.5081 C.3     1  UNL1        0.0272
     32 N         142.1813  134.7682  156.1855 N.3     1  UNL1       -0.2641
     33 C         141.8085  133.4060  155.6801 C.3     1  UNL1        0.0900
     34 C         142.5429  132.1955  156.1754 C.3     1  UNL1        0.0897
     35 N         143.6500  132.3472  157.1760 N.3     1  UNL1       -0.2691
     36 C         144.3844  131.1366  157.6713 C.3     1  UNL1        0.0897
     37 C         144.0227  133.7094  157.6813 C.3     1  UNL1        0.0897
     38 C         143.2884  134.9199  157.1860 C.3     1  UNL1        0.0900
@<TRIPOS>BOND
     1    24    25    1
     2    25    18    1
     3    18    19   ar
     4    19    20   ar
     5    20    21    1
     6    20    22   ar
     7    22    23   ar
     8    23    16    1
     9    16    10    1
    10    10    11   ar
    11    11    12   ar
    12    12    13   ar
    13    13    14   ar
    14    14     1    1
    15     1     2    2
    16     2     3    1
    17     3     4    2
    18     4     5    1
    19     5    26    1
    20    26    27   am
    21    27    28    2
    22    27    30    1
    23    30    31    1
    24    30    32    1
    25    32    33    1
    26    33    34    1
    27    34    35    1
    28    35    36    1
    29    35    37    1
    30    37    38    1
    31     5     6    1
    32     6     7    2
    33     7     8    1
    34     8     9    2
    35    14    15   ar
    36    23    18   ar
    37    15    10   ar
    38     9     1    1
    39     9     4    1
    40    38    32    1
    41    16    17    1
    42    26    29    1
@<TRIPOS>MOLECULE
*****
 38 42 0 0 0
SMALL
GASTEIGER

@<TRIPOS>ATOM
      1 C         141.2462  138.8504  159.3953 C.2     1  UNL1        0.0381
      2 C         139.8237  138.9469  159.8614 C.2     1  UNL1        0.1000
      3 N         139.8365  139.3017  161.3188 N.2     1  UNL1       -0.2461
      4 C         141.2670  139.4245  161.7533 C.2     1  UNL1        0.0811
      5 C         141.8888  139.7543  163.0780 C.3     1  UNL1        0.1346
      6 C         143.3817  139.8051  163.2138 C.2     1  UNL1       -0.0009
      7 C         144.2529  139.5262  162.0251 C.2     1  UNL1       -0.0025
      8 C         143.6311  139.1964  160.7005 C.2     1  UNL1        0.0011
      9 C         142.1382  139.1456  160.5646 C.2     1  UNL1        0.0184
     10 C         142.9746  136.9563  156.3663 C.ar    1  UNL1        0.2208
     11 N         142.6001  137.8507  155.2218 N.ar    1  UNL1       -0.2120
     12 C         141.7743  139.0783  155.4686 C.ar    1  UNL1        0.1034
     13 C         141.3230  139.4115  156.8597 C.ar    1  UNL1        0.0400
     14 C         141.6975  138.5172  158.0042 C.ar    1  UNL1        0.0873
     15 N         142.5233  137.2895  157.7574 N.ar    1  UNL1       -0.2135
     16 N         143.8004  135.7286  156.1195 N.pl3   1  UNL1       -0.2776
     17 H         144.7664  135.8113  155.9490 H       1  UNL1        0.1552
     18 C         143.4806  133.2512  157.0713 C.ar    1  UNL1        0.2571
     19 N         142.5964  132.0892  156.7283 N.ar    1  UNL1       -0.1301
     20 N         141.7236  132.4946  155.5777 N.ar    1  UNL1       -0.2432
     21 C         140.6879  131.6378  154.9121 C.3     1  UNL1        0.1539
     22 C         142.0683  133.9072  155.2096 C.ar    1  UNL1        0.1146
     23 C         143.1543  134.3750  156.1327 C.ar    1  UNL1        0.1248
     24 C         145.6395  132.2966  158.1565 C.3     1  UNL1        0.2543
     25 O         144.5104  133.2840  158.1615 O.3     1  UNL1       -0.4543
     26 N         141.0175  140.0333  164.2668 N.am    1  UNL1       -0.2964
     27 C         140.4720  138.8970  165.0800 C.2     1  UNL1        0.2374
     28 O         140.7978  137.4817  164.7043 O.2     1  UNL1       -0.2736
     29 H         140.8037  140.9621  164.5133 H       1  UNL1        0.1501
     30 C         139.6008  139.1759  166.2687 C.3     1  UNL1        0.1349
     31 C         138.1505  138.7938  166.2418 C.3     1  UNL1        0.0272
     32 N         140.1798  139.8370  167.4844 N.3     1  UNL1       -0.2641
     33 C         139.2887  140.2078  168.6326 C.3     1  UNL1        0.0900
     34 C         139.8676  140.8688  169.8482 C.3     1  UNL1        0.0897
     35 N         141.3377  141.1591  169.9156 N.3     1  UNL1       -0.2691
     36 C         141.9167  141.8202  171.1313 C.3     1  UNL1        0.0897
     37 C         142.2288  140.7883  168.7674 C.3     1  UNL1        0.0897
     38 C         141.6499  140.1273  167.5517 C.3     1  UNL1        0.0900
@<TRIPOS>BOND
     1    24    25    1
     2    25    18    1
     3    18    19   ar
     4    19    20   ar
     5    20    21    1
     6    20    22   ar
     7    22    23   ar
     8    23    16    1
     9    16    10    1
    10    10    11   ar
    11    11    12   ar
    12    12    13   ar
    13    13    14   ar
    14    14     1    1
    15     1     2    2
    16     2     3    1
    17     3     4    2
    18     4     5    1
    19     5    26    1
    20    26    27   am
    21    27    28    2
    22    27    30    1
    23    30    31    1
    24    30    32    1
    25    32    33    1
    26    33    34    1
    27    34    35    1
    28    35    36    1
    29    35    37    1
    30    37    38    1
    31     5     6    1
    32     6     7    2
    33     7     8    1
    34     8     9    2
    35    14    15   ar
    36    23    18   ar
    37    15    10   ar
    38     9     1    1
    39     9     4    1
    40    38    32    1
    41    16    17    1
    42    26    29    1
@<TRIPOS>MOLECULE
*****
 38 42 0 0 0
SMALL
GASTEIGER

@<TRIPOS>ATOM
      1 C         140.2790  138.7285  162.6187 C.2     1  UNL1        0.0381
      2 C         141.3203  137.6773  162.3720 C.2     1  UNL1        0.1000
      3 N         141.4309  137.4731  160.8901 N.2     1  UNL1       -0.2461
      4 C         140.4579  138.3982  160.2209 C.2     1  UNL1        0.0811
      5 C         140.1283  138.6343  158.7767 C.3     1  UNL1        0.1346
      6 C         139.0868  139.6462  158.4009 C.2     1  UNL1       -0.0009
      7 C         138.3750  140.4220  159.4692 C.2     1  UNL1       -0.0025
      8 C         138.7046  140.1859  160.9134 C.2     1  UNL1        0.0011
      9 C         139.7461  139.1740  161.2892 C.2     1  UNL1        0.0184
     10 C         139.7971  141.1439  165.7305 C.ar    1  UNL1        0.2208
     11 N         138.9818  140.2743  166.6409 N.ar    1  UNL1       -0.2120
     12 C         138.5990  138.8893  166.2105 C.ar    1  UNL1        0.1034
     13 C         139.0314  138.3740  164.8698 C.ar    1  UNL1        0.0400
     14 C         139.8466  139.2437  163.9594 C.ar    1  UNL1        0.0873
     15 N         140.2295  140.6287  164.3897 N.ar    1  UNL1       -0.2135
     16 N         140.1800  142.5289  166.1608 N.pl3   1  UNL1       -0.2776
     17 H         140.0002  142.8255  167.0822 H       1  UNL1        0.1552
     18 C         140.1421  144.4947  164.3499 C.ar    1  UNL1        0.2571
     19 N         141.1795  145.1974  163.5253 N.ar    1  UNL1       -0.1301
     20 N         142.5154  144.5991  163.8531 N.ar    1  UNL1       -0.2432
     21 C         143.8319  145.0025  163.2581 C.3     1  UNL1        0.1539
     22 C         142.3036  143.5267  164.8802 C.ar    1  UNL1        0.1146
     23 C         140.8368  143.4621  165.1873 C.ar    1  UNL1        0.1248
     24 C         137.8295  144.3338  163.1767 C.3     1  UNL1        0.2543
     25 O         138.6686  144.7753  164.3390 O.3     1  UNL1       -0.4543
     26 N         140.8402  137.8584  157.7084 N.am    1  UNL1       -0.2964
     27 C         142.2868  138.1316  157.4209 C.2     1  UNL1        0.2374
     28 O         143.0215  139.1807  158.2017 O.2     1  UNL1       -0.2736
     29 H         140.3580  137.1698  157.1960 H       1  UNL1        0.1501
     30 C         142.9987  137.3558  156.3526 C.3     1  UNL1        0.1349
     31 C         143.9971  138.0409  155.4673 C.3     1  UNL1        0.0272
     32 N         142.7123  135.8948  156.1697 N.3     1  UNL1       -0.2641
     33 C         143.3370  134.8872  157.0887 C.3     1  UNL1        0.0900
     34 C         143.0506  133.4262  156.9058 C.3     1  UNL1        0.0897
     35 N         142.1395  132.9728  155.8039 N.3     1  UNL1       -0.2691
     36 C         141.8531  131.5118  155.6210 C.3     1  UNL1        0.0897
     37 C         141.5148  133.9804  154.8849 C.3     1  UNL1        0.0897
     38 C         141.8012  135.4413  155.0678 C.3     1  UNL1        0.0900
@<TRIPOS>BOND
     1    24    25    1
     2    25    18    1
     3    18    19   ar
     4    19    20   ar
     5    20    21    1
     6    20    22   ar
     7    22    23   ar
     8    23    16    1
     9    16    10    1
    10    10    11   ar
    11    11    12   ar
    12    12    13   ar
    13    13    14   ar
    14    14     1    1
    15     1     2    2
    16     2     3    1
    17     3     4    2
    18     4     5    1
    19     5    26    1
    20    26    27   am
    21    27    28    2
    22    27    30    1
    23    30    31    1
    24    30    32    1
    25    32    33    1
    26    33    34    1
    27    34    35    1
    28    35    36    1
    29    35    37    1
    30    37    38    1
    31     5     6    1
    32     6     7    2
    33     7     8    1
    34     8     9    2
    35    14    15   ar
    36    23    18   ar
    37    15    10   ar
    38     9     1    1
    39     9     4    1
    40    38    32    1
    41    16    17    1
    42    26    29    1
@<TRIPOS>MOLECULE
*****
 38 42 0 0 0
SMALL
GASTEIGER

@<TRIPOS>ATOM
      1 C         142.4514  138.5033  159.8839 C.2     1  UNL1        0.0381
      2 C         143.7283  139.1779  160.2896 C.2     1  UNL1        0.1000
      3 N         143.5706  139.6577  161.7020 N.2     1  UNL1       -0.2461
      4 C         142.1962  139.2797  162.1692 C.2     1  UNL1        0.0811
      5 C         141.4852  139.4930  163.4726 C.3     1  UNL1        0.1346
      6 C         140.0825  138.9928  163.6524 C.2     1  UNL1       -0.0009
      7 C         139.3909  138.2794  162.5288 C.2     1  UNL1       -0.0025
      8 C         140.1019  138.0661  161.2254 C.2     1  UNL1        0.0011
      9 C         141.5046  138.5663  161.0455 C.2     1  UNL1        0.0184
     10 C         142.8272  136.2179  156.6612 C.ar    1  UNL1        0.2208
     11 N         141.6093  136.6212  155.8840 N.ar    1  UNL1       -0.2120
     12 C         140.6721  137.6520  156.4402 C.ar    1  UNL1        0.1034
     13 C         140.9528  138.2793  157.7734 C.ar    1  UNL1        0.0400
     14 C         142.1707  137.8760  158.5506 C.ar    1  UNL1        0.0873
     15 N         143.1079  136.8453  157.9945 N.ar    1  UNL1       -0.2135
     16 N         143.7644  135.1872  156.1051 N.pl3   1  UNL1       -0.2776
     17 H         144.4847  135.4573  155.4907 H       1  UNL1        0.1552
     18 C         142.4430  132.8637  156.1309 C.ar    1  UNL1        0.2571
     19 N         142.6981  131.5049  156.7128 N.ar    1  UNL1       -0.1301
     20 N         144.0168  131.5464  157.4264 N.ar    1  UNL1       -0.2432
     21 C         144.6622  130.4040  158.1532 C.3     1  UNL1        0.1539
     22 C         144.5767  132.9307  157.2857 C.ar    1  UNL1        0.1146
     23 C         143.6041  133.7450  156.4850 C.ar    1  UNL1        0.1248
     24 C         141.3735  133.5731  153.8719 C.3     1  UNL1        0.2543
     25 O         141.2384  133.2700  155.3348 O.3     1  UNL1       -0.4543
     26 N         142.1769  140.2064  164.5963 N.am    1  UNL1       -0.2964
     27 C         142.2687  141.7036  164.5903 C.2     1  UNL1        0.2374
     28 O         141.6688  142.4873  163.4606 O.2     1  UNL1       -0.2736
     29 H         142.5706  139.6921  165.3377 H       1  UNL1        0.1501
     30 C         142.9604  142.4171  165.7139 C.3     1  UNL1        0.1349
     31 C         144.1828  143.2418  165.4390 C.3     1  UNL1        0.0272
     32 N         142.4296  142.3059  167.1125 N.3     1  UNL1       -0.2641
     33 C         143.3772  142.2906  168.2752 C.3     1  UNL1        0.0900
     34 C         142.8465  142.1794  169.6738 C.3     1  UNL1        0.0897
     35 N         141.3683  142.0836  169.9096 N.3     1  UNL1       -0.2691
     36 C         140.8375  141.9725  171.3082 C.3     1  UNL1        0.0897
     37 C         140.4207  142.0990  168.7468 C.3     1  UNL1        0.0897
     38 C         140.9514  142.2102  167.3483 C.3     1  UNL1        0.0900
@<TRIPOS>BOND
     1    24    25    1
     2    25    18    1
     3    18    19   ar
     4    19    20   ar
     5    20    21    1
     6    20    22   ar
     7    22    23   ar
     8    23    16    1
     9    16    10    1
    10    10    11   ar
    11    11    12   ar
    12    12    13   ar
    13    13    14   ar
    14    14     1    1
    15     1     2    2
    16     2     3    1
    17     3     4    2
    18     4     5    1
    19     5    26    1
    20    26    27   am
    21    27    28    2
    22    27    30    1
    23    30    31    1
    24    30    32    1
    25    32    33    1
    26    33    34    1
    27    34    35    1
    28    35    36    1
    29    35    37    1
    30    37    38    1
    31     5     6    1
    32     6     7    2
    33     7     8    1
    34     8     9    2
    35    14    15   ar
    36    23    18   ar
    37    15    10   ar
    38     9     1    1
    39     9     4    1
    40    38    32    1
    41    16    17    1
    42    26    29    1
@<TRIPOS>MOLECULE
*****
 38 42 0 0 0
SMALL
GASTEIGER

@<TRIPOS>ATOM
      1 C         143.6336  139.8886  161.2301 C.2     1  UNL1        0.0381
      2 C         143.6836  138.3894  161.2302 C.2     1  UNL1        0.1000
      3 N         143.4402  137.9174  159.8274 N.2     1  UNL1       -0.2461
      4 C         143.2397  139.1249  158.9603 C.2     1  UNL1        0.0811
      5 C         142.9637  139.2725  157.4933 C.3     1  UNL1        0.1346
      6 C         142.8072  140.6382  156.8932 C.2     1  UNL1       -0.0009
      7 C         142.9267  141.8565  157.7601 C.2     1  UNL1       -0.0025
      8 C         143.2027  141.7089  159.2271 C.2     1  UNL1        0.0011
      9 C         143.3592  140.3431  159.8272 C.2     1  UNL1        0.0184
     10 C         142.8250  142.2784  164.2936 C.ar    1  UNL1        0.2208
     11 N         144.2060  142.5546  164.8099 N.ar    1  UNL1       -0.2120
     12 C         145.3961  141.9420  164.1330 C.ar    1  UNL1        0.1034
     13 C         145.2053  141.0534  162.9397 C.ar    1  UNL1        0.0400
     14 C         143.8244  140.7772  162.4233 C.ar    1  UNL1        0.0873
     15 N         142.6342  141.3898  163.1003 N.ar    1  UNL1       -0.2135
     16 N         141.6348  142.8910  164.9705 N.pl3   1  UNL1       -0.2776
     17 H         141.4970  142.7610  165.9366 H       1  UNL1        0.1552
     18 C         139.1625  143.5480  164.1950 C.ar    1  UNL1        0.2571
     19 N         138.5800  144.5595  163.2530 N.ar    1  UNL1       -0.1301
     20 N         139.7120  145.3383  162.6513 N.ar    1  UNL1       -0.2432
     21 C         139.5843  146.4518  161.6544 C.3     1  UNL1        0.1539
     22 C         140.9941  144.8081  163.2213 C.ar    1  UNL1        0.1146
     23 C         140.6546  143.7015  164.1755 C.ar    1  UNL1        0.1248
     24 C         138.4947  141.0911  164.7125 C.3     1  UNL1        0.2543
     25 O         138.3889  142.5568  165.0130 O.3     1  UNL1       -0.4543
     26 N         142.8442  138.0541  156.6264 N.am    1  UNL1       -0.2964
     27 C         141.5848  137.2395  156.6471 C.2     1  UNL1        0.2374
     28 O         140.4450  137.6432  157.5349 O.2     1  UNL1       -0.2736
     29 H         143.5922  137.7892  156.0438 H       1  UNL1        0.1501
     30 C         141.4653  136.0212  155.7803 C.3     1  UNL1        0.1349
     31 C         140.6755  136.0817  154.5065 C.3     1  UNL1        0.0272
     32 N         142.1356  134.7424  156.1872 N.3     1  UNL1       -0.2641
     33 C         141.6967  133.4409  155.5844 C.3     1  UNL1        0.0900
     34 C         142.3669  132.1621  155.9913 C.3     1  UNL1        0.0897
     35 N         143.4760  132.1850  157.0009 N.3     1  UNL1       -0.2691
     36 C         144.1463  130.9062  157.4078 C.3     1  UNL1        0.0897
     37 C         143.9148  133.4865  157.6037 C.3     1  UNL1        0.0897
     38 C         143.2446  134.7653  157.1968 C.3     1  UNL1        0.0900
@<TRIPOS>BOND
     1    24    25    1
     2    25    18    1
     3    18    19   ar
     4    19    20   ar
     5    20    21    1
     6    20    22   ar
     7    22    23   ar
     8    23    16    1
     9    16    10    1
    10    10    11   ar
    11    11    12   ar
    12    12    13   ar
    13    13    14   ar
    14    14     1    1
    15     1     2    2
    16     2     3    1
    17     3     4    2
    18     4     5    1
    19     5    26    1
    20    26    27   am
    21    27    28    2
    22    27    30    1
    23    30    31    1
    24    30    32    1
    25    32    33    1
    26    33    34    1
    27    34    35    1
    28    35    36    1
    29    35    37    1
    30    37    38    1
    31     5     6    1
    32     6     7    2
    33     7     8    1
    34     8     9    2
    35    14    15   ar
    36    23    18   ar
    37    15    10   ar
    38     9     1    1
    39     9     4    1
    40    38    32    1
    41    16    17    1
    42    26    29    1
@<TRIPOS>MOLECULE
*****
 38 42 0 0 0
SMALL
GASTEIGER

@<TRIPOS>ATOM
      1 C         143.6030  139.8889  161.4660 C.2     1  UNL1        0.0381
      2 C         143.7853  138.4006  161.4238 C.2     1  UNL1        0.1000
      3 N         143.5559  137.9454  160.0131 N.2     1  UNL1       -0.2461
      4 C         143.2318  139.1524  159.1834 C.2     1  UNL1        0.0811
      5 C         142.9140  139.3128  157.7263 C.3     1  UNL1        0.1346
      6 C         142.6253  140.6744  157.1671 C.2     1  UNL1       -0.0009
      7 C         142.6544  141.8755  158.0651 C.2     1  UNL1       -0.0025
      8 C         142.9723  141.7151  159.5222 C.2     1  UNL1        0.0011
      9 C         143.2610  140.3535  160.0814 C.2     1  UNL1        0.0184
     10 C         142.6535  142.0472  164.6582 C.ar    1  UNL1        0.2208
     11 N         144.0107  142.5015  165.1072 N.ar    1  UNL1       -0.2120
     12 C         145.2320  142.0849  164.3424 C.ar    1  UNL1        0.1034
     13 C         145.0961  141.2141  163.1287 C.ar    1  UNL1        0.0400
     14 C         143.7389  140.7598  162.6797 C.ar    1  UNL1        0.0873
     15 N         142.5176  141.1764  163.4445 N.ar    1  UNL1       -0.2135
     16 N         141.4322  142.4638  165.4230 N.pl3   1  UNL1       -0.2776
     17 H         141.1724  143.4129  165.4566 H       1  UNL1        0.1552
     18 C         140.5460  141.2274  167.6209 C.ar    1  UNL1        0.2571
     19 N         139.5988  140.0965  167.8927 N.ar    1  UNL1       -0.1301
     20 N         139.0742  139.6047  166.5763 N.ar    1  UNL1       -0.2432
     21 C         138.0980  138.4829  166.3799 C.3     1  UNL1        0.1539
     22 C         139.6971  140.4316  165.4910 C.ar    1  UNL1        0.1146
     23 C         140.6068  141.4345  166.1365 C.ar    1  UNL1        0.1248
     24 C         140.6972  143.2561  169.2369 C.3     1  UNL1        0.2543
     25 O         141.3001  142.0132  168.6524 O.3     1  UNL1       -0.4543
     26 N         142.8848  138.1116  156.8283 N.am    1  UNL1       -0.2964
     27 C         141.6510  137.2619  156.7522 C.2     1  UNL1        0.2374
     28 O         140.4464  137.6135  157.5739 O.2     1  UNL1       -0.2736
     29 H         143.6755  137.8809  156.2890 H       1  UNL1        0.1501
     30 C         141.6219  136.0607  155.8543 C.3     1  UNL1        0.1349
     31 C         140.9382  136.1372  154.5213 C.3     1  UNL1        0.0272
     32 N         142.2764  134.7830  156.2893 N.3     1  UNL1       -0.2641
     33 C         141.8549  133.4790  155.6794 C.3     1  UNL1        0.0900
     34 C         142.5094  132.2014  156.1144 C.3     1  UNL1        0.0897
     35 N         143.5852  132.2277  157.1593 N.3     1  UNL1       -0.2691
     36 C         144.2398  130.9500  157.5943 C.3     1  UNL1        0.0897
     37 C         144.0067  133.5318  157.7691 C.3     1  UNL1        0.0897
     38 C         143.3522  134.8094  157.3341 C.3     1  UNL1        0.0900
@<TRIPOS>BOND
     1    24    25    1
     2    25    18    1
     3    18    19   ar
     4    19    20   ar
     5    20    21    1
     6    20    22   ar
     7    22    23   ar
     8    23    16    1
     9    16    10    1
    10    10    11   ar
    11    11    12   ar
    12    12    13   ar
    13    13    14   ar
    14    14     1    1
    15     1     2    2
    16     2     3    1
    17     3     4    2
    18     4     5    1
    19     5    26    1
    20    26    27   am
    21    27    28    2
    22    27    30    1
    23    30    31    1
    24    30    32    1
    25    32    33    1
    26    33    34    1
    27    34    35    1
    28    35    36    1
    29    35    37    1
    30    37    38    1
    31     5     6    1
    32     6     7    2
    33     7     8    1
    34     8     9    2
    35    14    15   ar
    36    23    18   ar
    37    15    10   ar
    38     9     1    1
    39     9     4    1
    40    38    32    1
    41    16    17    1
    42    26    29    1
@<TRIPOS>MOLECULE
*****
 38 42 0 0 0
SMALL
GASTEIGER

@<TRIPOS>ATOM
      1 C         141.6117  138.9966  158.6428 C.2     1  UNL1        0.0381
      2 C         140.5230  140.0243  158.7362 C.2     1  UNL1        0.1000
      3 N         140.4700  140.5160  160.1523 N.2     1  UNL1       -0.2461
      4 C         141.5260  139.7922  160.9341 C.2     1  UNL1        0.0811
      5 C         141.9362  139.8669  162.3750 C.3     1  UNL1        0.1346
      6 C         143.0519  139.0026  162.8829 C.2     1  UNL1       -0.0009
      7 C         143.7574  138.0635  161.9500 C.2     1  UNL1       -0.0025
      8 C         143.3472  137.9888  160.5091 C.2     1  UNL1        0.0011
      9 C         142.2315  138.8531  160.0012 C.2     1  UNL1        0.0184
     10 C         141.6827  136.2362  155.7923 C.ar    1  UNL1        0.2208
     11 N         142.8080  136.7398  154.9379 N.ar    1  UNL1       -0.2120
     12 C         143.5345  137.9957  155.3185 C.ar    1  UNL1        0.1034
     13 C         143.1357  138.7480  156.5534 C.ar    1  UNL1        0.0400
     14 C         142.0104  138.2443  157.4078 C.ar    1  UNL1        0.0873
     15 N         141.2839  136.9884  157.0272 N.ar    1  UNL1       -0.2135
     16 N         140.9562  134.9803  155.4117 N.pl3   1  UNL1       -0.2776
     17 H         139.9752  134.9381  155.4834 H       1  UNL1        0.1552
     18 C         142.5322  132.8511  155.7695 C.ar    1  UNL1        0.2571
     19 N         143.1266  131.8083  154.8700 N.ar    1  UNL1       -0.1301
     20 N         142.6861  132.1013  153.4664 N.ar    1  UNL1       -0.2432
     21 C         143.0485  131.3094  152.2452 C.3     1  UNL1        0.1539
     22 C         141.8194  133.3251  153.4985 C.ar    1  UNL1        0.1146
     23 C         141.7243  133.7886  154.9219 C.ar    1  UNL1        0.1248
     24 C         143.7668  133.8418  157.8298 C.3     1  UNL1        0.2543
     25 O         142.7138  132.9407  157.2558 O.3     1  UNL1       -0.4543
     26 N         141.2306  140.8060  163.3079 N.am    1  UNL1       -0.2964
     27 C         140.0659  140.3222  164.1199 C.2     1  UNL1        0.2374
     28 O         139.6067  138.8992  163.9990 O.2     1  UNL1       -0.2736
     29 H         141.5319  141.7399  163.3872 H       1  UNL1        0.1501
     30 C         139.3603  141.2612  165.0528 C.3     1  UNL1        0.1349
     31 C         138.2592  142.1414  164.5400 C.3     1  UNL1        0.0272
     32 N         139.7557  141.3201  166.4986 N.3     1  UNL1       -0.2641
     33 C         139.5201  140.1365  167.3894 C.3     1  UNL1        0.0900
     34 C         139.9155  140.1953  168.8351 C.3     1  UNL1        0.0897
     35 N         140.5466  141.4377  169.3900 N.3     1  UNL1       -0.2691
     36 C         140.9420  141.4966  170.8358 C.3     1  UNL1        0.0897
     37 C         140.7822  142.6214  168.4992 C.3     1  UNL1        0.0897
     38 C         140.3868  142.5625  167.0535 C.3     1  UNL1        0.0900
@<TRIPOS>BOND
     1    24    25    1
     2    25    18    1
     3    18    19   ar
     4    19    20   ar
     5    20    21    1
     6    20    22   ar
     7    22    23   ar
     8    23    16    1
     9    16    10    1
    10    10    11   ar
    11    11    12   ar
    12    12    13   ar
    13    13    14   ar
    14    14     1    1
    15     1     2    2
    16     2     3    1
    17     3     4    2
    18     4     5    1
    19     5    26    1
    20    26    27   am
    21    27    28    2
    22    27    30    1
    23    30    31    1
    24    30    32    1
    25    32    33    1
    26    33    34    1
    27    34    35    1
    28    35    36    1
    29    35    37    1
    30    37    38    1
    31     5     6    1
    32     6     7    2
    33     7     8    1
    34     8     9    2
    35    14    15   ar
    36    23    18   ar
    37    15    10   ar
    38     9     1    1
    39     9     4    1
    40    38    32    1
    41    16    17    1
    42    26    29    1
