@<TRIPOS>MOLECULE
*****
 34 38 0 0 0
SMALL
GASTEIGER

@<TRIPOS>ATOM
      1 C         140.2134  141.4165  169.9492 C.3     1  UNL1        0.0437
      2 C         140.5254  141.8977  168.5632 C.3     1  UNL1        0.1352
      3 C         141.3253  142.8803  169.3661 C.3     1  UNL1        0.0437
      4 O         141.1151  142.7200  167.4560 O.3     1  UNL1       -0.4828
      5 C         140.7967  142.3927  166.0271 C.ar    1  UNL1        0.1361
      6 C         141.3864  143.2150  164.9199 C.ar    1  UNL1        0.0379
      7 C         141.0679  142.8877  163.4911 C.ar    1  UNL1        0.0178
      8 C         140.1597  141.7381  163.1695 C.ar    1  UNL1        0.0505
      9 C         139.5699  140.9157  164.2768 C.ar    1  UNL1        0.0153
     10 C         139.8884  141.2430  165.7056 C.ar    1  UNL1        0.0367
     11 C         139.2987  140.4207  166.8129 C.3     1  UNL1        0.1535
     12 C         138.8915  139.9762  165.4392 C.3     1  UNL1        0.2349
     13 O         137.9794  138.7945  165.5859 O.2     1  UNL1       -0.4478
     14 C         137.8227  138.5087  167.0501 C.2     1  UNL1        0.2770
     15 N         136.9959  137.4106  167.6505 N.pl3   1  UNL1       -0.3133
     16 N         138.6381  139.5137  167.8084 N.2     1  UNL1       -0.2204
     17 C         139.6171  140.7480  168.2416 C.3     1  UNL1        0.0597
     18 C         138.7523  139.6095  168.6952 C.3     1  UNL1        0.0058
     19 C         139.4605  140.4622  169.7058 C.3     1  UNL1        0.0058
     20 H         136.4931  136.7976  167.0668 H       1  UNL1        0.1466
     21 H         136.9559  137.3029  168.6283 H       1  UNL1        0.1466
     22 N         139.8412  141.4108  161.7408 N.am    1  UNL1       -0.2791
     23 C         138.7267  142.1274  161.0376 C.2     1  UNL1        0.2688
     24 O         137.9308  143.1714  161.7632 O.2     1  UNL1       -0.2681
     25 H         140.3636  140.7256  161.2645 H       1  UNL1        0.1552
     26 C         138.4083  141.8001  159.6089 C.ar    1  UNL1        0.1538
     27 C         138.2809  140.3691  159.1777 C.ar    1  UNL1        0.1224
     28 N         137.9624  140.0418  157.7489 N.ar    1  UNL1       -0.2393
     29 C         137.7713  141.1455  156.7513 C.ar    1  UNL1        0.1440
     30 C         137.8986  142.5765  157.1825 C.ar    1  UNL1        0.1193
     31 N         138.2171  142.9039  158.6112 N.ar    1  UNL1       -0.2362
     32 C         137.4528  140.8182  155.3225 C.3     1  UNL1        0.3597
     33 F         138.2217  141.4733  154.2136 F       1  UNL1       -0.1915
     34 F         136.3653  139.8357  155.0026 F       1  UNL1       -0.1915
@<TRIPOS>BOND
     1     1     2    1
     2     2     3    1
     3     2     4    1
     4     4     5    1
     5     5     6   ar
     6     6     7   ar
     7     7     8   ar
     8     8    22    1
     9    22    23   am
    10    23    24    2
    11    23    26    1
    12    26    27   ar
    13    27    28   ar
    14    28    29   ar
    15    29    32    1
    16    32    33    1
    17    32    34    1
    18    29    30   ar
    19    30    31   ar
    20     8     9   ar
    21     9    10   ar
    22    10    11    1
    23    11    12    1
    24    12    13    1
    25    13    14    1
    26    14    15    1
    27    14    16    2
    28    11    17    1
    29    17    18    1
    30    18    19    1
    31    17     2    1
    32    10     5   ar
    33    16    11    1
    34    19    17    1
    35    31    26   ar
    36    22    25    1
    37    15    20    1
    38    15    21    1
@<TRIPOS>MOLECULE
*****
 34 38 0 0 0
SMALL
GASTEIGER

@<TRIPOS>ATOM
      1 C         140.0045  141.5196  170.0410 C.3     1  UNL1        0.0437
      2 C         140.6028  141.7637  168.6874 C.3     1  UNL1        0.1352
      3 C         141.3572  142.7798  169.4927 C.3     1  UNL1        0.0437
      4 O         141.4630  142.3607  167.6134 O.3     1  UNL1       -0.4828
      5 C         141.3612  141.8569  166.2042 C.ar    1  UNL1        0.1361
      6 C         142.2214  142.4539  165.1302 C.ar    1  UNL1        0.0379
      7 C         142.1195  141.9501  163.7210 C.ar    1  UNL1        0.0178
      8 C         141.1573  140.8493  163.3858 C.ar    1  UNL1        0.0505
      9 C         140.2970  140.2523  164.4599 C.ar    1  UNL1        0.0153
     10 C         140.3990  140.7561  165.8690 C.ar    1  UNL1        0.0367
     11 C         139.5387  140.1591  166.9431 C.3     1  UNL1        0.1535
     12 C         139.3273  139.5555  165.5861 C.3     1  UNL1        0.2349
     13 O         138.2770  138.4920  165.7105 O.2     1  UNL1       -0.4478
     14 C         137.8391  138.4382  167.1441 C.2     1  UNL1        0.2770
     15 N         136.8033  137.5159  167.7156 N.pl3   1  UNL1       -0.3133
     16 N         138.6189  139.4685  167.9059 N.2     1  UNL1       -0.2204
     17 C         139.6406  140.6629  168.3522 C.3     1  UNL1        0.0597
     18 C         138.5884  139.6827  168.7788 C.3     1  UNL1        0.0058
     19 C         139.2027  140.6091  169.7859 C.3     1  UNL1        0.0058
     20 H         136.3433  136.8702  167.1318 H       1  UNL1        0.1466
     21 H         136.5835  137.5563  168.6744 H       1  UNL1        0.1466
     22 N         141.0554  140.3455  161.9767 N.am    1  UNL1       -0.2791
     23 C         141.8111  139.1176  161.5627 C.2     1  UNL1        0.2688
     24 O         142.6686  138.3936  162.5578 O.2     1  UNL1       -0.2681
     25 H         140.4926  140.8207  161.3235 H       1  UNL1        0.1552
     26 C         141.7091  138.6138  160.1535 C.ar    1  UNL1        0.1538
     27 C         142.9051  137.9999  159.4882 C.ar    1  UNL1        0.1224
     28 N         142.8032  137.4960  158.0789 N.ar    1  UNL1       -0.2393
     29 C         141.5053  137.6061  157.3352 C.ar    1  UNL1        0.1440
     30 C         140.3093  138.2200  158.0005 C.ar    1  UNL1        0.1193
     31 N         140.4112  138.7239  159.4097 N.ar    1  UNL1       -0.2362
     32 C         141.4033  137.1023  155.9260 C.3     1  UNL1        0.3597
     33 F         140.7704  135.7708  155.6495 F       1  UNL1       -0.1915
     34 F         141.9344  137.9300  154.7933 F       1  UNL1       -0.1915
@<TRIPOS>BOND
     1     1     2    1
     2     2     3    1
     3     2     4    1
     4     4     5    1
     5     5     6   ar
     6     6     7   ar
     7     7     8   ar
     8     8    22    1
     9    22    23   am
    10    23    24    2
    11    23    26    1
    12    26    27   ar
    13    27    28   ar
    14    28    29   ar
    15    29    32    1
    16    32    33    1
    17    32    34    1
    18    29    30   ar
    19    30    31   ar
    20     8     9   ar
    21     9    10   ar
    22    10    11    1
    23    11    12    1
    24    12    13    1
    25    13    14    1
    26    14    15    1
    27    14    16    2
    28    11    17    1
    29    17    18    1
    30    18    19    1
    31    17     2    1
    32    10     5   ar
    33    16    11    1
    34    19    17    1
    35    31    26   ar
    36    22    25    1
    37    15    20    1
    38    15    21    1
@<TRIPOS>MOLECULE
*****
 34 38 0 0 0
SMALL
GASTEIGER

@<TRIPOS>ATOM
      1 C         142.4302  140.9907  170.2849 C.3     1  UNL1        0.0437
      2 C         142.8709  141.6677  169.0210 C.3     1  UNL1        0.1352
      3 C         143.9500  142.1308  169.9544 C.3     1  UNL1        0.0437
      4 O         143.6862  142.5056  168.0813 O.3     1  UNL1       -0.4828
      5 C         143.2695  142.6453  166.6471 C.ar    1  UNL1        0.1361
      6 C         144.0849  143.4831  165.7073 C.ar    1  UNL1        0.0379
      7 C         143.6682  143.6228  164.2731 C.ar    1  UNL1        0.0178
      8 C         142.4361  142.9246  163.7787 C.ar    1  UNL1        0.0505
      9 C         141.6207  142.0867  164.7185 C.ar    1  UNL1        0.0153
     10 C         142.0374  141.9471  166.1526 C.ar    1  UNL1        0.0367
     11 C         141.2220  141.1092  167.0925 C.3     1  UNL1        0.1535
     12 C         140.6840  141.1554  165.6929 C.3     1  UNL1        0.2349
     13 O         139.4412  140.3170  165.6464 O.2     1  UNL1       -0.4478
     14 C         139.2110  139.7526  167.0169 C.2     1  UNL1        0.2770
     15 N         138.0789  138.8560  167.4225 N.pl3   1  UNL1       -0.3133
     16 N         140.3116  140.2422  167.9106 N.2     1  UNL1       -0.2204
     17 C         141.6388  140.9695  168.5266 C.3     1  UNL1        0.0597
     18 C         140.4567  140.0827  168.7837 C.3     1  UNL1        0.0058
     19 C         141.4086  140.4051  169.8972 C.3     1  UNL1        0.0058
     20 H         137.4016  138.5881  166.7601 H       1  UNL1        0.1466
     21 H         138.0131  138.5354  168.3510 H       1  UNL1        0.1466
     22 N         142.0193  143.0643  162.3446 N.am    1  UNL1       -0.2791
     23 C         141.3450  144.3205  161.8784 C.2     1  UNL1        0.2688
     24 O         141.0875  145.4370  162.8464 O.2     1  UNL1       -0.2681
     25 H         142.1884  142.3315  161.7093 H       1  UNL1        0.1552
     26 C         140.9283  144.4601  160.4443 C.ar    1  UNL1        0.1538
     27 C         139.7702  143.6647  159.9189 C.ar    1  UNL1        0.1224
     28 N         139.3534  143.8044  158.4847 N.ar    1  UNL1       -0.2393
     29 C         140.0948  144.7395  157.5759 C.ar    1  UNL1        0.1440
     30 C         141.2530  145.5349  158.1013 C.ar    1  UNL1        0.1193
     31 N         141.6697  145.3953  159.5354 N.ar    1  UNL1       -0.2362
     32 C         139.6781  144.8792  156.1418 C.3     1  UNL1        0.3597
     33 F         138.4419  145.6535  155.7920 F       1  UNL1       -0.1915
     34 F         140.4975  144.2445  155.0574 F       1  UNL1       -0.1915
@<TRIPOS>BOND
     1     1     2    1
     2     2     3    1
     3     2     4    1
     4     4     5    1
     5     5     6   ar
     6     6     7   ar
     7     7     8   ar
     8     8    22    1
     9    22    23   am
    10    23    24    2
    11    23    26    1
    12    26    27   ar
    13    27    28   ar
    14    28    29   ar
    15    29    32    1
    16    32    33    1
    17    32    34    1
    18    29    30   ar
    19    30    31   ar
    20     8     9   ar
    21     9    10   ar
    22    10    11    1
    23    11    12    1
    24    12    13    1
    25    13    14    1
    26    14    15    1
    27    14    16    2
    28    11    17    1
    29    17    18    1
    30    18    19    1
    31    17     2    1
    32    10     5   ar
    33    16    11    1
    34    19    17    1
    35    31    26   ar
    36    22    25    1
    37    15    20    1
    38    15    21    1
@<TRIPOS>MOLECULE
*****
 34 38 0 0 0
SMALL
GASTEIGER

@<TRIPOS>ATOM
      1 C         142.0159  141.0974  170.3299 C.3     1  UNL1        0.0437
      2 C         141.0631  140.5743  169.2962 C.3     1  UNL1        0.1352
      3 C         140.4613  139.9745  170.5323 C.3     1  UNL1        0.0437
      4 O         139.9014  139.8429  168.6918 O.3     1  UNL1       -0.4828
      5 C         139.6723  139.8929  167.2101 C.ar    1  UNL1        0.1361
      6 C         138.5106  139.1615  166.6058 C.ar    1  UNL1        0.0379
      7 C         138.2815  139.2115  165.1241 C.ar    1  UNL1        0.0178
      8 C         139.2142  139.9930  164.2470 C.ar    1  UNL1        0.0505
      9 C         140.3760  140.7244  164.8515 C.ar    1  UNL1        0.0153
     10 C         140.6050  140.6744  166.3330 C.ar    1  UNL1        0.0367
     11 C         141.7668  141.4058  166.9375 C.3     1  UNL1        0.1535
     12 C         141.6654  141.5469  165.4475 C.3     1  UNL1        0.2349
     13 O         142.8006  142.4116  164.9856 O.2     1  UNL1       -0.4478
     14 C         143.6036  142.8050  166.1899 C.2     1  UNL1        0.2770
     15 N         144.8301  143.6685  166.1881 N.pl3   1  UNL1       -0.3133
     16 N         142.9647  142.1834  167.3962 N.2     1  UNL1       -0.2204
     17 C         141.9958  141.3558  168.4190 C.3     1  UNL1        0.0597
     18 C         143.2051  142.2292  168.2616 C.3     1  UNL1        0.0058
     19 C         142.7988  141.7492  169.6234 C.3     1  UNL1        0.0058
     20 H         145.1750  144.0320  165.3406 H       1  UNL1        0.1466
     21 H         145.2903  143.8717  167.0344 H       1  UNL1        0.1466
     22 N         138.9851  140.0431  162.7655 N.am    1  UNL1       -0.2791
     23 C         138.4576  141.2952  162.1300 C.2     1  UNL1        0.2688
     24 O         138.1591  142.4973  162.9760 O.2     1  UNL1       -0.2681
     25 H         139.1811  139.2541  162.2102 H       1  UNL1        0.1552
     26 C         138.2286  141.3452  160.6484 C.ar    1  UNL1        0.1538
     27 C         137.7760  140.1160  159.9175 C.ar    1  UNL1        0.1224
     28 N         137.5470  140.1662  158.4359 N.ar    1  UNL1       -0.2393
     29 C         137.7705  141.4454  157.6853 C.ar    1  UNL1        0.1440
     30 C         138.2231  142.6746  158.4162 C.ar    1  UNL1        0.1193
     31 N         138.4521  142.6246  159.8977 N.ar    1  UNL1       -0.2362
     32 C         137.5415  141.4955  156.2038 C.3     1  UNL1        0.3597
     33 F         138.6776  141.2339  155.2599 F       1  UNL1       -0.1915
     34 F         136.1763  141.8071  155.6660 F       1  UNL1       -0.1915
@<TRIPOS>BOND
     1     1     2    1
     2     2     3    1
     3     2     4    1
     4     4     5    1
     5     5     6   ar
     6     6     7   ar
     7     7     8   ar
     8     8    22    1
     9    22    23   am
    10    23    24    2
    11    23    26    1
    12    26    27   ar
    13    27    28   ar
    14    28    29   ar
    15    29    32    1
    16    32    33    1
    17    32    34    1
    18    29    30   ar
    19    30    31   ar
    20     8     9   ar
    21     9    10   ar
    22    10    11    1
    23    11    12    1
    24    12    13    1
    25    13    14    1
    26    14    15    1
    27    14    16    2
    28    11    17    1
    29    17    18    1
    30    18    19    1
    31    17     2    1
    32    10     5   ar
    33    16    11    1
    34    19    17    1
    35    31    26   ar
    36    22    25    1
    37    15    20    1
    38    15    21    1
@<TRIPOS>MOLECULE
*****
 34 38 0 0 0
SMALL
GASTEIGER

@<TRIPOS>ATOM
      1 C         139.4171  139.7323  166.8075 C.3     1  UNL1        0.0437
      2 C         139.6579  141.0417  166.1166 C.3     1  UNL1        0.1352
      3 C         140.0681  141.4049  167.5130 C.3     1  UNL1        0.0437
      4 O         140.0411  142.4772  165.9106 O.3     1  UNL1       -0.4828
      5 C         139.9305  143.0949  164.5481 C.ar    1  UNL1        0.1361
      6 C         140.3138  144.5304  164.3421 C.ar    1  UNL1        0.0379
      7 C         140.2032  145.1481  162.9796 C.ar    1  UNL1        0.0178
      8 C         139.7094  144.3303  161.8232 C.ar    1  UNL1        0.0505
      9 C         139.3261  142.8947  162.0293 C.ar    1  UNL1        0.0153
     10 C         139.4367  142.2771  163.3917 C.ar    1  UNL1        0.0367
     11 C         139.0535  140.8415  163.5977 C.3     1  UNL1        0.1535
     12 C         138.8906  141.3199  162.1853 C.3     1  UNL1        0.2349
     13 O         138.3723  140.1757  161.3655 O.2     1  UNL1       -0.4478
     14 C         138.2149  138.9903  162.2710 C.2     1  UNL1        0.2770
     15 N         137.7229  137.6319  161.8677 N.pl3   1  UNL1       -0.3133
     16 N         138.6359  139.4018  163.6506 N.2     1  UNL1       -0.2204
     17 C         139.1641  140.2239  164.9602 C.3     1  UNL1        0.0597
     18 C         138.6577  138.9229  164.4115 C.3     1  UNL1        0.0058
     19 C         139.0067  139.0385  165.8657 C.3     1  UNL1        0.0058
     20 H         137.4688  137.4581  160.9325 H       1  UNL1        0.1466
     21 H         137.6540  136.9142  162.5380 H       1  UNL1        0.1466
     22 N         139.5988  144.9479  160.4608 N.am    1  UNL1       -0.2791
     23 C         140.7924  144.9806  159.5529 C.2     1  UNL1        0.2688
     24 O         142.0967  144.3956  160.0076 O.2     1  UNL1       -0.2681
     25 H         138.7427  145.3319  160.1624 H       1  UNL1        0.1552
     26 C         140.6818  145.5982  158.1905 C.ar    1  UNL1        0.1538
     27 C         141.6904  145.2644  157.1316 C.ar    1  UNL1        0.1224
     28 N         141.5798  145.8821  155.7691 N.ar    1  UNL1       -0.2393
     29 C         140.4606  146.8336  155.4656 C.ar    1  UNL1        0.1440
     30 C         139.4520  147.1674  156.5245 C.ar    1  UNL1        0.1193
     31 N         139.5626  146.5497  157.8870 N.ar    1  UNL1       -0.2362
     32 C         140.3500  147.4512  154.1032 C.3     1  UNL1        0.3597
     33 F         141.2905  147.0336  153.0118 F       1  UNL1       -0.1915
     34 F         139.2989  148.4865  153.8321 F       1  UNL1       -0.1915
@<TRIPOS>BOND
     1     1     2    1
     2     2     3    1
     3     2     4    1
     4     4     5    1
     5     5     6   ar
     6     6     7   ar
     7     7     8   ar
     8     8    22    1
     9    22    23   am
    10    23    24    2
    11    23    26    1
    12    26    27   ar
    13    27    28   ar
    14    28    29   ar
    15    29    32    1
    16    32    33    1
    17    32    34    1
    18    29    30   ar
    19    30    31   ar
    20     8     9   ar
    21     9    10   ar
    22    10    11    1
    23    11    12    1
    24    12    13    1
    25    13    14    1
    26    14    15    1
    27    14    16    2
    28    11    17    1
    29    17    18    1
    30    18    19    1
    31    17     2    1
    32    10     5   ar
    33    16    11    1
    34    19    17    1
    35    31    26   ar
    36    22    25    1
    37    15    20    1
    38    15    21    1
@<TRIPOS>MOLECULE
*****
 34 38 0 0 0
SMALL
GASTEIGER

@<TRIPOS>ATOM
      1 C         139.6514  143.6538  166.0550 C.3     1  UNL1        0.0437
      2 C         140.9191  143.1257  165.4517 C.3     1  UNL1        0.1352
      3 C         140.9460  142.4189  166.7746 C.3     1  UNL1        0.0437
      4 O         142.1961  142.3522  165.3079 O.3     1  UNL1       -0.4828
      5 C         143.0061  142.4688  164.0507 C.ar    1  UNL1        0.1361
      6 C         144.2832  141.6952  163.9069 C.ar    1  UNL1        0.0379
      7 C         145.0931  141.8118  162.6497 C.ar    1  UNL1        0.0178
      8 C         144.6260  142.7020  161.5364 C.ar    1  UNL1        0.0505
      9 C         143.3489  143.4756  161.6803 C.ar    1  UNL1        0.0153
     10 C         142.5390  143.3590  162.9375 C.ar    1  UNL1        0.0367
     11 C         141.2619  144.1325  163.0814 C.3     1  UNL1        0.1535
     12 C         141.9622  144.3489  161.7726 C.3     1  UNL1        0.2349
     13 O         141.1456  145.3127  160.9638 O.2     1  UNL1       -0.4478
     14 C         139.9406  145.6920  161.7727 C.2     1  UNL1        0.2770
     15 N         138.8545  146.6352  161.3474 N.pl3   1  UNL1       -0.3133
     16 N         140.0125  144.9627  163.0814 N.2     1  UNL1       -0.2204
     17 C         140.4520  144.0159  164.3385 C.3     1  UNL1        0.0597
     18 C         139.4450  144.9765  163.7788 C.3     1  UNL1        0.0058
     19 C         139.2471  144.3952  165.1474 C.3     1  UNL1        0.0058
     20 H         138.8962  147.0676  160.4640 H       1  UNL1        0.1466
     21 H         138.1000  146.8217  161.9518 H       1  UNL1        0.1466
     22 N         145.4359  142.8186  160.2793 N.am    1  UNL1       -0.2791
     23 C         144.8504  142.3878  158.9672 C.2     1  UNL1        0.2688
     24 O         143.4550  141.8403  158.9122 O.2     1  UNL1       -0.2681
     25 H         146.3518  143.1780  160.3154 H       1  UNL1        0.1552
     26 C         145.6603  142.5044  157.7101 C.ar    1  UNL1        0.1538
     27 C         145.0200  142.2452  156.3786 C.ar    1  UNL1        0.1224
     28 N         145.8300  142.3618  155.1215 N.ar    1  UNL1       -0.2393
     29 C         147.2802  142.7377  155.1958 C.ar    1  UNL1        0.1440
     30 C         147.9205  142.9970  156.5273 C.ar    1  UNL1        0.1193
     31 N         147.1106  142.8804  157.7844 N.ar    1  UNL1       -0.2362
     32 C         148.0901  142.8544  153.9387 C.3     1  UNL1        0.3597
     33 F         147.7587  143.9124  152.9284 F       1  UNL1       -0.1915
     34 F         149.2316  141.9129  153.6918 F       1  UNL1       -0.1915
@<TRIPOS>BOND
     1     1     2    1
     2     2     3    1
     3     2     4    1
     4     4     5    1
     5     5     6   ar
     6     6     7   ar
     7     7     8   ar
     8     8    22    1
     9    22    23   am
    10    23    24    2
    11    23    26    1
    12    26    27   ar
    13    27    28   ar
    14    28    29   ar
    15    29    32    1
    16    32    33    1
    17    32    34    1
    18    29    30   ar
    19    30    31   ar
    20     8     9   ar
    21     9    10   ar
    22    10    11    1
    23    11    12    1
    24    12    13    1
    25    13    14    1
    26    14    15    1
    27    14    16    2
    28    11    17    1
    29    17    18    1
    30    18    19    1
    31    17     2    1
    32    10     5   ar
    33    16    11    1
    34    19    17    1
    35    31    26   ar
    36    22    25    1
    37    15    20    1
    38    15    21    1
@<TRIPOS>MOLECULE
*****
 34 38 0 0 0
SMALL
GASTEIGER

@<TRIPOS>ATOM
      1 C         141.4469  142.2305  170.0662 C.3     1  UNL1        0.0437
      2 C         140.7736  142.7951  168.8505 C.3     1  UNL1        0.1352
      3 C         140.2740  143.7514  169.8926 C.3     1  UNL1        0.0437
      4 O         139.9267  143.6917  167.9968 O.3     1  UNL1       -0.4828
      5 C         139.8133  143.4360  166.5230 C.ar    1  UNL1        0.1361
      6 C         138.9664  144.3326  165.6693 C.ar    1  UNL1        0.0379
      7 C         138.8530  144.0769  164.1956 C.ar    1  UNL1        0.0178
      8 C         139.5863  142.9246  163.5756 C.ar    1  UNL1        0.0505
      9 C         140.4331  142.0279  164.4295 C.ar    1  UNL1        0.0153
     10 C         140.5466  142.2836  165.9031 C.ar    1  UNL1        0.0367
     11 C         141.3934  141.3870  166.7570 C.3     1  UNL1        0.1535
     12 C         141.3759  141.0090  165.3054 C.3     1  UNL1        0.2349
     13 O         142.2447  139.7988  165.1312 O.2     1  UNL1       -0.4478
     14 C         142.7991  139.4287  166.4749 C.2     1  UNL1        0.2770
     15 N         143.7183  138.2789  166.7632 N.pl3   1  UNL1       -0.3133
     16 N         142.2730  140.4103  167.4797 N.2     1  UNL1       -0.2204
     17 C         141.5069  141.6427  168.2306 C.3     1  UNL1        0.0597
     18 C         142.4192  140.4598  168.3656 C.3     1  UNL1        0.0058
     19 C         142.0613  141.2727  169.5744 C.3     1  UNL1        0.0058
     20 H         144.0100  137.6868  166.0327 H       1  UNL1        0.1466
     21 H         144.0299  138.1164  167.6828 H       1  UNL1        0.1466
     22 N         139.4728  142.6689  162.1020 N.am    1  UNL1       -0.2791
     23 C         138.2730  141.9539  161.5550 C.2     1  UNL1        0.2688
     24 O         137.1865  141.4947  162.4817 O.2     1  UNL1       -0.2681
     25 H         140.1859  142.9702  161.4938 H       1  UNL1        0.1552
     26 C         138.1595  141.6982  160.0814 C.ar    1  UNL1        0.1538
     27 C         137.9023  140.3085  159.5789 C.ar    1  UNL1        0.1224
     28 N         137.7888  140.0528  158.1052 N.ar    1  UNL1       -0.2393
     29 C         137.9326  141.1868  157.1340 C.ar    1  UNL1        0.1440
     30 C         138.1898  142.5765  157.6364 C.ar    1  UNL1        0.1193
     31 N         138.3033  142.8323  159.1101 N.ar    1  UNL1       -0.2362
     32 C         137.8191  140.9311  155.6604 C.3     1  UNL1        0.3597
     33 F         138.9907  140.3808  154.9022 F       1  UNL1       -0.1915
     34 F         136.5341  141.2256  154.9448 F       1  UNL1       -0.1915
@<TRIPOS>BOND
     1     1     2    1
     2     2     3    1
     3     2     4    1
     4     4     5    1
     5     5     6   ar
     6     6     7   ar
     7     7     8   ar
     8     8    22    1
     9    22    23   am
    10    23    24    2
    11    23    26    1
    12    26    27   ar
    13    27    28   ar
    14    28    29   ar
    15    29    32    1
    16    32    33    1
    17    32    34    1
    18    29    30   ar
    19    30    31   ar
    20     8     9   ar
    21     9    10   ar
    22    10    11    1
    23    11    12    1
    24    12    13    1
    25    13    14    1
    26    14    15    1
    27    14    16    2
    28    11    17    1
    29    17    18    1
    30    18    19    1
    31    17     2    1
    32    10     5   ar
    33    16    11    1
    34    19    17    1
    35    31    26   ar
    36    22    25    1
    37    15    20    1
    38    15    21    1
@<TRIPOS>MOLECULE
*****
 34 38 0 0 0
SMALL
GASTEIGER

@<TRIPOS>ATOM
      1 C         142.4879  132.0936  153.1268 C.3     1  UNL1        0.0437
      2 C         142.2111  133.4821  153.6223 C.3     1  UNL1        0.1352
      3 C         141.5442  133.5468  152.2802 C.3     1  UNL1        0.0437
      4 O         141.7027  134.8930  153.6517 O.3     1  UNL1       -0.4828
      5 C         141.9574  135.7572  154.8511 C.ar    1  UNL1        0.1361
      6 C         141.4490  137.1680  154.8805 C.ar    1  UNL1        0.0379
      7 C         141.7036  138.0322  156.0799 C.ar    1  UNL1        0.0178
      8 C         142.4666  137.4854  157.2499 C.ar    1  UNL1        0.0505
      9 C         142.9750  136.0744  157.2204 C.ar    1  UNL1        0.0153
     10 C         142.7204  135.2103  156.0211 C.ar    1  UNL1        0.0367
     11 C         143.2287  133.7993  155.9916 C.3     1  UNL1        0.1535
     12 C         143.5587  134.5406  157.2533 C.3     1  UNL1        0.2349
     13 O         144.3296  133.6146  158.1467 O.2     1  UNL1       -0.4478
     14 C         144.4760  132.3011  157.4373 C.2     1  UNL1        0.2770
     15 N         145.1794  131.0867  157.9669 N.pl3   1  UNL1       -0.3133
     16 N         143.7957  132.4153  156.1054 N.2     1  UNL1       -0.2204
     17 C         142.9741  132.9353  154.7923 C.3     1  UNL1        0.0597
     18 C         143.7081  131.8050  155.4508 C.3     1  UNL1        0.0058
     19 C         143.1206  131.6218  154.0828 C.3     1  UNL1        0.0058
     20 H         145.5978  131.1096  158.8578 H       1  UNL1        0.1466
     21 H         145.2228  130.2669  157.4236 H       1  UNL1        0.1466
     22 N         142.7213  138.3494  158.4492 N.am    1  UNL1       -0.2791
     23 C         143.7199  139.4660  158.3708 C.2     1  UNL1        0.2688
     24 O         144.4638  139.7184  157.0930 O.2     1  UNL1       -0.2681
     25 H         142.2330  138.1837  159.2879 H       1  UNL1        0.1552
     26 C         143.9745  140.3300  159.5702 C.ar    1  UNL1        0.1538
     27 C         144.0993  141.8163  159.4109 C.ar    1  UNL1        0.1224
     28 N         144.3539  142.6804  160.6103 N.ar    1  UNL1       -0.2393
     29 C         144.4838  142.0582  161.9690 C.ar    1  UNL1        0.1440
     30 C         144.3590  140.5719  162.1282 C.ar    1  UNL1        0.1193
     31 N         144.1044  139.7078  160.9289 N.ar    1  UNL1       -0.2362
     32 C         144.7384  142.9222  163.1683 C.3     1  UNL1        0.3597
     33 F         145.4942  142.3727  164.3418 F       1  UNL1       -0.1915
     34 F         144.2373  144.3359  163.1943 F       1  UNL1       -0.1915
@<TRIPOS>BOND
     1     1     2    1
     2     2     3    1
     3     2     4    1
     4     4     5    1
     5     5     6   ar
     6     6     7   ar
     7     7     8   ar
     8     8    22    1
     9    22    23   am
    10    23    24    2
    11    23    26    1
    12    26    27   ar
    13    27    28   ar
    14    28    29   ar
    15    29    32    1
    16    32    33    1
    17    32    34    1
    18    29    30   ar
    19    30    31   ar
    20     8     9   ar
    21     9    10   ar
    22    10    11    1
    23    11    12    1
    24    12    13    1
    25    13    14    1
    26    14    15    1
    27    14    16    2
    28    11    17    1
    29    17    18    1
    30    18    19    1
    31    17     2    1
    32    10     5   ar
    33    16    11    1
    34    19    17    1
    35    31    26   ar
    36    22    25    1
    37    15    20    1
    38    15    21    1
@<TRIPOS>MOLECULE
*****
 34 38 0 0 0
SMALL
GASTEIGER

@<TRIPOS>ATOM
      1 C         139.4529  137.4995  165.3581 C.3     1  UNL1        0.0437
      2 C         138.9833  138.8069  164.7925 C.3     1  UNL1        0.1352
      3 C         138.0646  138.6887  165.9724 C.3     1  UNL1        0.0437
      4 O         138.1947  140.0733  164.6366 O.3     1  UNL1       -0.4828
      5 C         138.4878  141.0039  163.4972 C.ar    1  UNL1        0.1361
      6 C         137.6991  142.2703  163.3413 C.ar    1  UNL1        0.0379
      7 C         137.9922  143.2009  162.2019 C.ar    1  UNL1        0.0178
      8 C         139.0740  142.8651  161.2185 C.ar    1  UNL1        0.0505
      9 C         139.8626  141.5987  161.3744 C.ar    1  UNL1        0.0153
     10 C         139.5695  140.6681  162.5138 C.ar    1  UNL1        0.0367
     11 C         140.3581  139.4017  162.6697 C.3     1  UNL1        0.1535
     12 C         140.7625  140.2305  161.4866 C.3     1  UNL1        0.2349
     13 O         141.8796  139.5191  160.7825 O.2     1  UNL1       -0.4478
     14 C         142.1657  138.2507  161.5304 C.2     1  UNL1        0.2770
     15 N         143.2090  137.2335  161.1742 N.pl3   1  UNL1       -0.3133
     16 N         141.2254  138.1781  162.6967 N.2     1  UNL1       -0.2204
     17 C         140.0650  138.4711  163.8090 C.3     1  UNL1        0.0597
     18 C         141.1448  137.5461  163.3313 C.3     1  UNL1        0.0058
     19 C         140.3511  137.2027  164.5569 C.3     1  UNL1        0.0058
     20 H         143.7812  137.3708  160.3849 H       1  UNL1        0.1466
     21 H         143.3216  136.4286  161.7298 H       1  UNL1        0.1466
     22 N         139.3671  143.7957  160.0792 N.am    1  UNL1       -0.2791
     23 C         139.2281  143.3164  158.6646 C.2     1  UNL1        0.2688
     24 O         138.7961  141.9067  158.3893 O.2     1  UNL1       -0.2681
     25 H         139.6506  144.7210  160.2598 H       1  UNL1        0.1552
     26 C         139.5212  144.2470  157.5253 C.ar    1  UNL1        0.1538
     27 C         140.3167  145.4963  157.7629 C.ar    1  UNL1        0.1224
     28 N         140.6098  146.4269  156.6234 N.ar    1  UNL1       -0.2393
     29 C         140.1074  146.1081  155.2465 C.ar    1  UNL1        0.1440
     30 C         139.3120  144.8588  155.0089 C.ar    1  UNL1        0.1193
     31 N         139.0189  143.9282  156.1482 N.ar    1  UNL1       -0.2362
     32 C         140.4006  147.0387  154.1072 C.3     1  UNL1        0.3597
     33 F         141.5798  146.7846  153.2156 F       1  UNL1       -0.1915
     34 F         139.5144  148.2234  153.8594 F       1  UNL1       -0.1915
@<TRIPOS>BOND
     1     1     2    1
     2     2     3    1
     3     2     4    1
     4     4     5    1
     5     5     6   ar
     6     6     7   ar
     7     7     8   ar
     8     8    22    1
     9    22    23   am
    10    23    24    2
    11    23    26    1
    12    26    27   ar
    13    27    28   ar
    14    28    29   ar
    15    29    32    1
    16    32    33    1
    17    32    34    1
    18    29    30   ar
    19    30    31   ar
    20     8     9   ar
    21     9    10   ar
    22    10    11    1
    23    11    12    1
    24    12    13    1
    25    13    14    1
    26    14    15    1
    27    14    16    2
    28    11    17    1
    29    17    18    1
    30    18    19    1
    31    17     2    1
    32    10     5   ar
    33    16    11    1
    34    19    17    1
    35    31    26   ar
    36    22    25    1
    37    15    20    1
    38    15    21    1
