@<TRIPOS>MOLECULE
*****
 38 42 0 0 0
SMALL
GASTEIGER

@<TRIPOS>ATOM
      1 C         138.5637  139.9211  159.7005 C.3     1  UNL1        0.0118
      2 C         137.5621  140.0033  160.8141 C.3     1  UNL1        0.0179
      3 C         137.7582  139.1922  162.0605 C.3     1  UNL1        0.0724
      4 N         138.9558  138.2988  162.1933 N.3     1  UNL1       -0.2689
      5 C         139.9574  138.2166  161.0797 C.3     1  UNL1        0.0724
      6 C         139.7613  139.0278  159.8334 C.3     1  UNL1        0.0179
      7 C         138.3676  140.7323  158.4541 C.3     1  UNL1        0.0854
      8 O         140.0761  140.8344  156.4994 O.2     1  UNL1       -0.2749
      9 C         139.5445  141.3834  157.7901 C.2     1  UNL1        0.2256
     10 N         140.1899  142.5838  158.4169 N.am    1  UNL1       -0.2790
     11 C         141.3668  143.2349  157.7530 C.3     1  UNL1        0.0934
     12 C         142.0121  144.4352  158.3798 C.3     1  UNL1        0.0221
     13 C         141.4806  144.9843  159.6705 C.3     1  UNL1        0.0126
     14 C         140.3036  144.3331  160.3344 C.3     1  UNL1        0.0965
     15 C         139.6583  143.1329  159.7076 C.3     1  UNL1        0.1024
     16 C         139.7721  144.8822  161.6251 C.2     1  UNL1        0.2268
     17 O         138.8925  146.0972  161.6176 O.2     1  UNL1       -0.2748
     18 N         140.1200  144.2163  162.9234 N.am    1  UNL1       -0.2795
     19 C         139.6654  144.6489  164.2858 C.3     1  UNL1        0.0935
     20 C         140.2482  143.7008  165.2916 C.3     1  UNL1        0.0233
     21 C         141.0629  142.6823  164.5507 C.3     1  UNL1        0.0233
     22 C         140.9837  143.0009  163.0871 C.3     1  UNL1        0.0935
     23 C         139.1519  137.4876  163.4398 C.3     1  UNL1        0.1007
     24 C         139.1745  138.1635  164.7787 C.ar    1  UNL1        0.0129
     25 C         138.1087  138.0728  165.8302 C.ar    1  UNL1        0.0176
     26 C         138.5425  138.9021  167.0025 C.ar    1  UNL1        0.0799
     27 N         139.8764  139.5053  166.6755 N.ar    1  UNL1       -0.3038
     28 C         140.2670  139.0488  165.3011 C.ar    1  UNL1        0.0772
     29 C         140.6787  140.4066  167.5664 C.ar    1  UNL1        0.0640
     30 C         142.1580  140.2010  167.7050 C.ar    1  UNL1        0.0175
     31 C         142.9603  141.1023  168.5960 C.ar    1  UNL1        0.0053
     32 C         142.2834  142.2093  169.3483 C.ar    1  UNL1        0.0715
     33 C         140.8040  142.4151  169.2097 C.ar    1  UNL1        0.0053
     34 C         140.0017  141.5137  168.3188 C.ar    1  UNL1        0.0175
     35 C         143.0857  143.1107  170.2392 C.3     1  UNL1        0.4186
     36 F         143.8881  144.0120  171.1302 F       1  UNL1       -0.1659
     37 F         141.9109  144.0353  170.3618 F       1  UNL1       -0.1659
     38 F         144.2606  142.1861  170.1167 F       1  UNL1       -0.1659
@<TRIPOS>BOND
     1     8     9    2
     2     9     7    1
     3     7     1    1
     4     1     2    1
     5     2     3    1
     6     3     4    1
     7     4    23    1
     8    23    24    1
     9    24    25   ar
    10    25    26   ar
    11    26    27   ar
    12    27    29    1
    13    29    30   ar
    14    30    31   ar
    15    31    32   ar
    16    32    35    1
    17    35    36    1
    18    35    37    1
    19    35    38    1
    20    32    33   ar
    21    33    34   ar
    22    27    28   ar
    23     4     5    1
    24     5     6    1
    25     9    10   am
    26    10    11    1
    27    11    12    1
    28    12    13    1
    29    13    14    1
    30    14    16    1
    31    16    17    2
    32    16    18   am
    33    18    19    1
    34    19    20    1
    35    20    21    1
    36    21    22    1
    37    14    15    1
    38     6     1    1
    39    15    10    1
    40    28    24   ar
    41    22    18    1
    42    34    29   ar
@<TRIPOS>MOLECULE
*****
 38 42 0 0 0
SMALL
GASTEIGER

@<TRIPOS>ATOM
      1 C         138.5705  139.9200  159.4483 C.3     1  UNL1        0.0118
      2 C         137.4858  139.8730  160.4833 C.3     1  UNL1        0.0179
      3 C         137.6950  139.1049  161.7545 C.3     1  UNL1        0.0724
      4 N         138.9888  138.3837  161.9909 N.3     1  UNL1       -0.2689
      5 C         140.0736  138.4307  160.9560 C.3     1  UNL1        0.0724
      6 C         139.8644  139.1988  159.6847 C.3     1  UNL1        0.0179
      7 C         138.3614  140.6881  158.1770 C.3     1  UNL1        0.0854
      8 O         139.8037  140.2396  156.0631 O.2     1  UNL1       -0.2749
      9 C         139.5340  141.0327  157.3074 C.2     1  UNL1        0.2256
     10 N         140.4370  142.1704  157.6820 N.am    1  UNL1       -0.2790
     11 C         141.6096  142.5150  156.8125 C.3     1  UNL1        0.0934
     12 C         142.5125  143.6526  157.1872 C.3     1  UNL1        0.0221
     13 C         142.2429  144.4457  158.4315 C.3     1  UNL1        0.0126
     14 C         141.0703  144.1011  159.3011 C.3     1  UNL1        0.0965
     15 C         140.1673  142.9635  158.9263 C.3     1  UNL1        0.1024
     16 C         140.8006  144.8942  160.5453 C.2     1  UNL1        0.2268
     17 O         139.6620  145.8701  160.5807 O.2     1  UNL1       -0.2748
     18 N         141.6694  144.7114  161.7543 N.am    1  UNL1       -0.2795
     19 C         141.5224  145.4302  163.0626 C.3     1  UNL1        0.0935
     20 C         142.5999  144.9408  163.9842 C.3     1  UNL1        0.0233
     21 C         143.4130  143.9194  163.2453 C.3     1  UNL1        0.0233
     22 C         142.8379  143.7777  161.8672 C.3     1  UNL1        0.0935
     23 C         139.1980  137.6156  163.2622 C.3     1  UNL1        0.1007
     24 C         140.3232  137.9825  164.1837 C.ar    1  UNL1        0.0129
     25 C         141.6434  137.2779  164.2872 C.ar    1  UNL1        0.0176
     26 C         142.4620  137.9783  165.3309 C.ar    1  UNL1        0.0799
     27 N         141.6477  139.1157  165.8725 N.ar    1  UNL1       -0.3038
     28 C         140.3259  139.1182  165.1635 C.ar    1  UNL1        0.0772
     29 C         142.0795  140.0810  166.9364 C.ar    1  UNL1        0.0640
     30 C         142.1367  139.6416  168.3694 C.ar    1  UNL1        0.0175
     31 C         142.5685  140.6069  169.4332 C.ar    1  UNL1        0.0053
     32 C         142.9430  142.0116  169.0640 C.ar    1  UNL1        0.0715
     33 C         142.8858  142.4511  167.6310 C.ar    1  UNL1        0.0053
     34 C         142.4541  141.4858  166.5672 C.ar    1  UNL1        0.0175
     35 C         143.3748  142.9769  170.1278 C.3     1  UNL1        0.4186
     36 F         143.8066  143.9422  171.1917 F       1  UNL1       -0.1659
     37 F         141.9722  143.5002  170.2222 F       1  UNL1       -0.1659
     38 F         144.7774  142.4536  170.0335 F       1  UNL1       -0.1659
@<TRIPOS>BOND
     1     8     9    2
     2     9     7    1
     3     7     1    1
     4     1     2    1
     5     2     3    1
     6     3     4    1
     7     4    23    1
     8    23    24    1
     9    24    25   ar
    10    25    26   ar
    11    26    27   ar
    12    27    29    1
    13    29    30   ar
    14    30    31   ar
    15    31    32   ar
    16    32    35    1
    17    35    36    1
    18    35    37    1
    19    35    38    1
    20    32    33   ar
    21    33    34   ar
    22    27    28   ar
    23     4     5    1
    24     5     6    1
    25     9    10   am
    26    10    11    1
    27    11    12    1
    28    12    13    1
    29    13    14    1
    30    14    16    1
    31    16    17    2
    32    16    18   am
    33    18    19    1
    34    19    20    1
    35    20    21    1
    36    21    22    1
    37    14    15    1
    38     6     1    1
    39    15    10    1
    40    28    24   ar
    41    22    18    1
    42    34    29   ar
@<TRIPOS>MOLECULE
*****
 38 42 0 0 0
SMALL
GASTEIGER

@<TRIPOS>ATOM
      1 C         140.4785  138.4830  160.6489 C.3     1  UNL1        0.0118
      2 C         141.3328  137.9912  161.7795 C.3     1  UNL1        0.0179
      3 C         140.6971  137.5664  163.0700 C.3     1  UNL1        0.0724
      4 N         139.2071  137.6333  163.2298 N.3     1  UNL1       -0.2689
      5 C         138.3528  138.1250  162.0992 C.3     1  UNL1        0.0724
      6 C         138.9885  138.5498  160.8087 C.3     1  UNL1        0.0179
      7 C         141.1142  138.9078  159.3583 C.3     1  UNL1        0.0854
      8 O         143.6427  138.8592  158.7633 O.2     1  UNL1       -0.2749
      9 C         142.4635  139.5629  159.3669 C.2     1  UNL1        0.2256
     10 N         142.6337  140.9218  159.9790 N.am    1  UNL1       -0.2790
     11 C         143.9830  141.5768  159.9875 C.3     1  UNL1        0.0934
     12 C         144.1532  142.9356  160.5996 C.3     1  UNL1        0.0221
     13 C         142.9740  143.6393  161.2032 C.3     1  UNL1        0.0126
     14 C         141.6246  142.9843  161.1946 C.3     1  UNL1        0.0965
     15 C         141.4545  141.6255  160.5825 C.3     1  UNL1        0.1024
     16 C         140.4454  143.6880  161.7982 C.2     1  UNL1        0.2268
     17 O         139.4587  144.3914  160.9141 O.2     1  UNL1       -0.2748
     18 N         140.2529  143.6883  163.2857 N.am    1  UNL1       -0.2795
     19 C         139.1281  144.3457  164.0291 C.3     1  UNL1        0.0935
     20 C         139.3314  144.0950  165.4939 C.3     1  UNL1        0.0233
     21 C         140.5820  143.2825  165.6559 C.3     1  UNL1        0.0233
     22 C         141.1515  143.0312  164.2911 C.3     1  UNL1        0.0935
     23 C         138.5714  137.2084  164.5204 C.3     1  UNL1        0.1007
     24 C         138.6928  138.0763  165.7377 C.ar    1  UNL1        0.0129
     25 C         137.6328  138.2904  166.7772 C.ar    1  UNL1        0.0176
     26 C         138.1804  139.2290  167.8112 C.ar    1  UNL1        0.0799
     27 N         139.5789  139.5951  167.4107 N.ar    1  UNL1       -0.3038
     28 C         139.8956  138.8827  166.1292 C.ar    1  UNL1        0.0772
     29 C         140.4991  140.5124  168.1602 C.ar    1  UNL1        0.0640
     30 C         139.9335  141.6032  169.0205 C.ar    1  UNL1        0.0175
     31 C         140.8537  142.5206  169.7699 C.ar    1  UNL1        0.0053
     32 C         142.3394  142.3472  169.6591 C.ar    1  UNL1        0.0715
     33 C         142.9051  141.2564  168.7987 C.ar    1  UNL1        0.0053
     34 C         141.9849  140.3390  168.0493 C.ar    1  UNL1        0.0175
     35 C         143.2596  143.2645  170.4085 C.3     1  UNL1        0.4186
     36 F         144.1799  144.1819  171.1580 F       1  UNL1       -0.1659
     37 F         142.1304  144.2306  170.6124 F       1  UNL1       -0.1659
     38 F         144.3889  142.2985  170.2046 F       1  UNL1       -0.1659
@<TRIPOS>BOND
     1     8     9    2
     2     9     7    1
     3     7     1    1
     4     1     2    1
     5     2     3    1
     6     3     4    1
     7     4    23    1
     8    23    24    1
     9    24    25   ar
    10    25    26   ar
    11    26    27   ar
    12    27    29    1
    13    29    30   ar
    14    30    31   ar
    15    31    32   ar
    16    32    35    1
    17    35    36    1
    18    35    37    1
    19    35    38    1
    20    32    33   ar
    21    33    34   ar
    22    27    28   ar
    23     4     5    1
    24     5     6    1
    25     9    10   am
    26    10    11    1
    27    11    12    1
    28    12    13    1
    29    13    14    1
    30    14    16    1
    31    16    17    2
    32    16    18   am
    33    18    19    1
    34    19    20    1
    35    20    21    1
    36    21    22    1
    37    14    15    1
    38     6     1    1
    39    15    10    1
    40    28    24   ar
    41    22    18    1
    42    34    29   ar
@<TRIPOS>MOLECULE
*****
 38 42 0 0 0
SMALL
GASTEIGER

@<TRIPOS>ATOM
      1 C         139.6562  139.2416  159.9780 C.3     1  UNL1        0.0118
      2 C         138.2841  139.1898  160.5819 C.3     1  UNL1        0.0179
      3 C         138.0754  138.5333  161.9143 C.3     1  UNL1        0.0724
      4 N         139.2388  137.9286  162.6429 N.3     1  UNL1       -0.2689
      5 C         140.6109  137.9804  162.0390 C.3     1  UNL1        0.0724
      6 C         140.8196  138.6369  160.7066 C.3     1  UNL1        0.0179
      7 C         139.8649  139.8981  158.6455 C.3     1  UNL1        0.0854
      8 O         138.1732  141.5629  157.5888 O.2     1  UNL1       -0.2749
      9 C         139.3945  141.3045  158.4205 C.2     1  UNL1        0.2256
     10 N         140.1454  142.4527  159.0272 N.am    1  UNL1       -0.2790
     11 C         139.6750  143.8591  158.8021 C.3     1  UNL1        0.0934
     12 C         140.4259  145.0072  159.4088 C.3     1  UNL1        0.0221
     13 C         141.6471  144.7488  160.2405 C.3     1  UNL1        0.0126
     14 C         142.1175  143.3424  160.4656 C.3     1  UNL1        0.0965
     15 C         141.3667  142.1943  159.8589 C.3     1  UNL1        0.1024
     16 C         143.3388  143.0841  161.2973 C.2     1  UNL1        0.2268
     17 O         144.6675  142.8741  160.6337 O.2     1  UNL1       -0.2748
     18 N         143.2314  143.0357  162.7926 N.am    1  UNL1       -0.2795
     19 C         144.3593  142.7885  163.7501 C.3     1  UNL1        0.0935
     20 C         143.8022  142.8261  165.1423 C.3     1  UNL1        0.0233
     21 C         142.3299  143.0965  165.0452 C.3     1  UNL1        0.0233
     22 C         141.9772  143.2260  163.5930 C.3     1  UNL1        0.0935
     23 C         139.0301  137.2721  163.9754 C.3     1  UNL1        0.1007
     24 C         139.0614  138.0941  165.2296 C.ar    1  UNL1        0.0129
     25 C         137.9402  138.2421  166.2150 C.ar    1  UNL1        0.0176
     26 C         138.4052  139.1520  167.3131 C.ar    1  UNL1        0.0799
     27 N         139.8139  139.5664  167.0064 N.ar    1  UNL1       -0.3038
     28 C         140.2194  138.9126  165.7188 C.ar    1  UNL1        0.0772
     29 C         140.6671  140.4750  167.8409 C.ar    1  UNL1        0.0640
     30 C         140.0287  141.4031  168.8312 C.ar    1  UNL1        0.0175
     31 C         140.8820  142.3118  169.6657 C.ar    1  UNL1        0.0053
     32 C         142.3737  142.2922  169.5098 C.ar    1  UNL1        0.0715
     33 C         143.0122  141.3640  168.5194 C.ar    1  UNL1        0.0053
     34 C         142.1589  140.4554  167.6850 C.ar    1  UNL1        0.0175
     35 C         143.2269  143.2008  170.3442 C.3     1  UNL1        0.4186
     36 F         144.0802  144.1095  171.1787 F       1  UNL1       -0.1659
     37 F         144.4000  142.2892  170.1373 F       1  UNL1       -0.1659
     38 F         142.0538  144.1125  170.5512 F       1  UNL1       -0.1659
@<TRIPOS>BOND
     1     8     9    2
     2     9     7    1
     3     7     1    1
     4     1     2    1
     5     2     3    1
     6     3     4    1
     7     4    23    1
     8    23    24    1
     9    24    25   ar
    10    25    26   ar
    11    26    27   ar
    12    27    29    1
    13    29    30   ar
    14    30    31   ar
    15    31    32   ar
    16    32    35    1
    17    35    36    1
    18    35    37    1
    19    35    38    1
    20    32    33   ar
    21    33    34   ar
    22    27    28   ar
    23     4     5    1
    24     5     6    1
    25     9    10   am
    26    10    11    1
    27    11    12    1
    28    12    13    1
    29    13    14    1
    30    14    16    1
    31    16    17    2
    32    16    18   am
    33    18    19    1
    34    19    20    1
    35    20    21    1
    36    21    22    1
    37    14    15    1
    38     6     1    1
    39    15    10    1
    40    28    24   ar
    41    22    18    1
    42    34    29   ar
@<TRIPOS>MOLECULE
*****
 38 42 0 0 0
SMALL
GASTEIGER

@<TRIPOS>ATOM
      1 C         141.7197  139.1132  159.5432 C.3     1  UNL1        0.0118
      2 C         140.2357  138.9510  159.6887 C.3     1  UNL1        0.0179
      3 C         139.6689  138.3026  160.9168 C.3     1  UNL1        0.0724
      4 N         140.5862  137.8164  161.9994 N.3     1  UNL1       -0.2689
      5 C         142.0703  137.9786  161.8540 C.3     1  UNL1        0.0724
      6 C         142.6370  138.6270  160.6259 C.3     1  UNL1        0.0179
      7 C         142.2866  139.7616  158.3151 C.3     1  UNL1        0.0854
      8 O         140.9722  140.2510  156.1281 O.2     1  UNL1       -0.2749
      9 C         141.4337  140.6789  157.4897 C.2     1  UNL1        0.2256
     10 N         141.0423  142.0240  158.0259 N.am    1  UNL1       -0.2790
     11 C         140.1895  142.9412  157.2005 C.3     1  UNL1        0.0934
     12 C         139.7981  144.2863  157.7367 C.3     1  UNL1        0.0221
     13 C         140.2597  144.7142  159.0983 C.3     1  UNL1        0.0126
     14 C         141.1125  143.7970  159.9237 C.3     1  UNL1        0.0965
     15 C         141.5038  142.4519  159.3875 C.3     1  UNL1        0.1024
     16 C         141.5740  144.2248  161.2853 C.2     1  UNL1        0.2268
     17 O         143.0208  144.5425  161.5213 O.2     1  UNL1       -0.2748
     18 N         140.5887  144.3350  162.4109 N.am    1  UNL1       -0.2795
     19 C         140.9009  144.7479  163.8187 C.3     1  UNL1        0.0935
     20 C         139.6234  144.7197  164.6042 C.3     1  UNL1        0.0233
     21 C         138.5216  144.2892  163.6818 C.3     1  UNL1        0.0233
     22 C         139.1182  144.0514  162.3263 C.3     1  UNL1        0.0935
     23 C         140.0194  137.1679  163.2276 C.3     1  UNL1        0.1007
     24 C         139.8407  137.9681  164.4836 C.ar    1  UNL1        0.0129
     25 C         138.5802  138.0740  165.2897 C.ar    1  UNL1        0.0176
     26 C         138.8516  138.9742  166.4584 C.ar    1  UNL1        0.0799
     27 N         140.2799  139.4248  166.3747 N.ar    1  UNL1       -0.3038
     28 C         140.8912  138.8029  165.1542 C.ar    1  UNL1        0.0772
     29 C         140.9749  140.3369  167.3416 C.ar    1  UNL1        0.0640
     30 C         140.5451  141.7688  167.4632 C.ar    1  UNL1        0.0175
     31 C         141.2400  142.6810  168.4301 C.ar    1  UNL1        0.0053
     32 C         142.3648  142.1612  169.2754 C.ar    1  UNL1        0.0715
     33 C         142.7947  140.7293  169.1539 C.ar    1  UNL1        0.0053
     34 C         142.0997  139.8172  168.1870 C.ar    1  UNL1        0.0175
     35 C         143.0598  143.0734  170.2424 C.3     1  UNL1        0.4186
     36 F         143.7547  143.9856  171.2093 F       1  UNL1       -0.1659
     37 F         144.3696  142.4176  169.9196 F       1  UNL1       -0.1659
     38 F         141.7499  143.7293  170.5651 F       1  UNL1       -0.1659
@<TRIPOS>BOND
     1     8     9    2
     2     9     7    1
     3     7     1    1
     4     1     2    1
     5     2     3    1
     6     3     4    1
     7     4    23    1
     8    23    24    1
     9    24    25   ar
    10    25    26   ar
    11    26    27   ar
    12    27    29    1
    13    29    30   ar
    14    30    31   ar
    15    31    32   ar
    16    32    35    1
    17    35    36    1
    18    35    37    1
    19    35    38    1
    20    32    33   ar
    21    33    34   ar
    22    27    28   ar
    23     4     5    1
    24     5     6    1
    25     9    10   am
    26    10    11    1
    27    11    12    1
    28    12    13    1
    29    13    14    1
    30    14    16    1
    31    16    17    2
    32    16    18   am
    33    18    19    1
    34    19    20    1
    35    20    21    1
    36    21    22    1
    37    14    15    1
    38     6     1    1
    39    15    10    1
    40    28    24   ar
    41    22    18    1
    42    34    29   ar
@<TRIPOS>MOLECULE
*****
 38 42 0 0 0
SMALL
GASTEIGER

@<TRIPOS>ATOM
      1 C         139.5274  138.6498  162.0983 C.3     1  UNL1        0.0118
      2 C         140.8947  138.1561  162.4677 C.3     1  UNL1        0.0179
      3 C         141.9489  138.0067  161.4112 C.3     1  UNL1        0.0724
      4 N         141.6356  138.3509  159.9852 N.3     1  UNL1       -0.2689
      5 C         140.2682  138.8446  159.6158 C.3     1  UNL1        0.0724
      6 C         139.2141  138.9940  160.6724 C.3     1  UNL1        0.0179
      7 C         138.4731  138.7993  163.1550 C.3     1  UNL1        0.0854
      8 O         138.6142  137.2594  165.2427 O.2     1  UNL1       -0.2749
      9 C         138.8248  138.5978  164.5991 C.2     1  UNL1        0.2256
     10 N         139.3872  139.7349  165.3998 N.am    1  UNL1       -0.2790
     11 C         139.7389  139.5335  166.8439 C.3     1  UNL1        0.0934
     12 C         140.3012  140.6705  167.6445 C.3     1  UNL1        0.0221
     13 C         140.5118  142.0089  167.0009 C.3     1  UNL1        0.0126
     14 C         140.1601  142.2103  165.5567 C.3     1  UNL1        0.0965
     15 C         139.5978  141.0733  164.7562 C.3     1  UNL1        0.1024
     16 C         140.3707  143.5488  164.9131 C.2     1  UNL1        0.2268
     17 O         139.2367  144.5269  164.8282 O.2     1  UNL1       -0.2748
     18 N         141.7153  143.9091  164.3545 N.am    1  UNL1       -0.2795
     19 C         142.0744  145.2029  163.6858 C.3     1  UNL1        0.0935
     20 C         143.5180  145.1323  163.2844 C.3     1  UNL1        0.0233
     21 C         144.0511  143.7948  163.7051 C.3     1  UNL1        0.0233
     22 C         142.9370  143.0388  164.3664 C.3     1  UNL1        0.0935
     23 C         142.6899  138.2014  158.9286 C.3     1  UNL1        0.1007
     24 C         142.5598  137.1314  157.8855 C.ar    1  UNL1        0.0129
     25 C         141.6576  137.1726  156.6879 C.ar    1  UNL1        0.0176
     26 C         141.8493  135.8990  155.9190 C.ar    1  UNL1        0.0799
     27 N         142.8702  135.0706  156.6414 N.ar    1  UNL1       -0.3038
     28 C         143.3093  135.8323  157.8568 C.ar    1  UNL1        0.0772
     29 C         143.3650  133.7181  156.2221 C.ar    1  UNL1        0.0640
     30 C         144.3679  132.9910  157.0679 C.ar    1  UNL1        0.0175
     31 C         144.8627  131.6385  156.6486 C.ar    1  UNL1        0.0053
     32 C         144.3546  131.0131  155.3835 C.ar    1  UNL1        0.0715
     33 C         143.3516  131.7401  154.5377 C.ar    1  UNL1        0.0053
     34 C         142.8568  133.0927  154.9570 C.ar    1  UNL1        0.0175
     35 C         144.8494  129.6606  154.9642 C.3     1  UNL1        0.4186
     36 F         145.3442  128.3080  154.5450 F       1  UNL1       -0.1659
     37 F         144.7155  130.0581  153.5241 F       1  UNL1       -0.1659
     38 F         144.9832  129.2630  156.4045 F       1  UNL1       -0.1659
@<TRIPOS>BOND
     1     8     9    2
     2     9     7    1
     3     7     1    1
     4     1     2    1
     5     2     3    1
     6     3     4    1
     7     4    23    1
     8    23    24    1
     9    24    25   ar
    10    25    26   ar
    11    26    27   ar
    12    27    29    1
    13    29    30   ar
    14    30    31   ar
    15    31    32   ar
    16    32    35    1
    17    35    36    1
    18    35    37    1
    19    35    38    1
    20    32    33   ar
    21    33    34   ar
    22    27    28   ar
    23     4     5    1
    24     5     6    1
    25     9    10   am
    26    10    11    1
    27    11    12    1
    28    12    13    1
    29    13    14    1
    30    14    16    1
    31    16    17    2
    32    16    18   am
    33    18    19    1
    34    19    20    1
    35    20    21    1
    36    21    22    1
    37    14    15    1
    38     6     1    1
    39    15    10    1
    40    28    24   ar
    41    22    18    1
    42    34    29   ar
@<TRIPOS>MOLECULE
*****
 38 42 0 0 0
SMALL
GASTEIGER

@<TRIPOS>ATOM
      1 C         139.2116  140.2502  158.9320 C.3     1  UNL1        0.0118
      2 C         140.6214  139.9389  158.5251 C.3     1  UNL1        0.0179
      3 C         141.4957  139.1132  159.4216 C.3     1  UNL1        0.0724
      4 N         140.9603  138.5987  160.7249 N.3     1  UNL1       -0.2689
      5 C         139.5505  138.9100  161.1317 C.3     1  UNL1        0.0724
      6 C         138.6762  139.7357  160.2353 C.3     1  UNL1        0.0179
      7 C         138.3372  141.0759  158.0355 C.3     1  UNL1        0.0854
      8 O         138.9386  141.5060  155.5448 O.2     1  UNL1       -0.2749
      9 C         138.9536  141.9444  156.9793 C.2     1  UNL1        0.2256
     10 N         139.5852  143.2514  157.3574 N.am    1  UNL1       -0.2790
     11 C         140.2016  144.1199  156.3012 C.3     1  UNL1        0.0934
     12 C         140.8332  145.4269  156.6794 C.3     1  UNL1        0.0221
     13 C         140.8482  145.8653  158.1138 C.3     1  UNL1        0.0126
     14 C         140.2318  144.9968  159.1700 C.3     1  UNL1        0.0965
     15 C         139.6003  143.6899  158.7918 C.3     1  UNL1        0.1024
     16 C         140.2469  145.4352  160.6044 C.2     1  UNL1        0.2268
     17 O         139.1938  146.3748  161.1126 O.2     1  UNL1       -0.2748
     18 N         141.3150  144.9341  161.5306 N.am    1  UNL1       -0.2795
     19 C         141.4580  145.2832  162.9825 C.3     1  UNL1        0.0935
     20 C         142.6591  144.5608  163.5168 C.3     1  UNL1        0.0233
     21 C         143.2584  143.7652  162.3952 C.3     1  UNL1        0.0233
     22 C         142.4277  143.9960  161.1677 C.3     1  UNL1        0.0935
     23 C         141.8347  137.7730  161.6214 C.3     1  UNL1        0.1007
     24 C         142.5744  138.4225  162.7531 C.ar    1  UNL1        0.0129
     25 C         144.0472  138.7029  162.7981 C.ar    1  UNL1        0.0176
     26 C         144.3543  139.3594  164.1114 C.ar    1  UNL1        0.0799
     27 N         143.0711  139.4847  164.8781 N.ar    1  UNL1       -0.3038
     28 C         141.9711  138.9057  164.0387 C.ar    1  UNL1        0.0772
     29 C         142.9153  140.0839  166.2444 C.ar    1  UNL1        0.0640
     30 C         142.9345  141.5738  166.4166 C.ar    1  UNL1        0.0175
     31 C         142.7788  142.1729  167.7829 C.ar    1  UNL1        0.0053
     32 C         142.6038  141.2822  168.9770 C.ar    1  UNL1        0.0715
     33 C         142.5846  139.7922  168.8048 C.ar    1  UNL1        0.0053
     34 C         142.7403  139.1931  167.4385 C.ar    1  UNL1        0.0175
     35 C         142.4481  141.8813  170.3432 C.3     1  UNL1        0.4186
     36 F         142.2923  142.4804  171.7096 F       1  UNL1       -0.1659
     37 F         142.4121  143.2531  169.7376 F       1  UNL1       -0.1659
     38 F         142.4840  140.5094  170.9490 F       1  UNL1       -0.1659
@<TRIPOS>BOND
     1     8     9    2
     2     9     7    1
     3     7     1    1
     4     1     2    1
     5     2     3    1
     6     3     4    1
     7     4    23    1
     8    23    24    1
     9    24    25   ar
    10    25    26   ar
    11    26    27   ar
    12    27    29    1
    13    29    30   ar
    14    30    31   ar
    15    31    32   ar
    16    32    35    1
    17    35    36    1
    18    35    37    1
    19    35    38    1
    20    32    33   ar
    21    33    34   ar
    22    27    28   ar
    23     4     5    1
    24     5     6    1
    25     9    10   am
    26    10    11    1
    27    11    12    1
    28    12    13    1
    29    13    14    1
    30    14    16    1
    31    16    17    2
    32    16    18   am
    33    18    19    1
    34    19    20    1
    35    20    21    1
    36    21    22    1
    37    14    15    1
    38     6     1    1
    39    15    10    1
    40    28    24   ar
    41    22    18    1
    42    34    29   ar
@<TRIPOS>MOLECULE
*****
 38 42 0 0 0
SMALL
GASTEIGER

@<TRIPOS>ATOM
      1 C         143.7392  143.0654  159.0952 C.3     1  UNL1        0.0118
      2 C         142.6070  143.7722  158.4108 C.3     1  UNL1        0.0179
      3 C         141.5598  144.4736  159.2240 C.3     1  UNL1        0.0724
      4 N         141.6447  144.4681  160.7216 N.3     1  UNL1       -0.2689
      5 C         142.7769  143.7613  161.4060 C.3     1  UNL1        0.0724
      6 C         143.8242  143.0599  160.5928 C.3     1  UNL1        0.0179
      7 C         144.7866  142.3640  158.2820 C.3     1  UNL1        0.0854
      8 O         144.5736  141.8217  155.7501 O.2     1  UNL1       -0.2749
      9 C         144.3803  141.4263  157.1841 C.2     1  UNL1        0.2256
     10 N         143.7806  140.0930  157.5201 N.am    1  UNL1       -0.2790
     11 C         143.3743  139.1552  156.4221 C.3     1  UNL1        0.0934
     12 C         142.7747  137.8220  156.7581 C.3     1  UNL1        0.0221
     13 C         142.5814  137.4265  158.1921 C.3     1  UNL1        0.0126
     14 C         142.9877  138.3643  159.2900 C.3     1  UNL1        0.0965
     15 C         143.5873  139.6975  158.9540 C.3     1  UNL1        0.1024
     16 C         142.7944  137.9688  160.7240 C.2     1  UNL1        0.2268
     17 O         143.9783  137.5910  161.5639 O.2     1  UNL1       -0.2748
     18 N         141.4171  137.9510  161.3179 N.am    1  UNL1       -0.2795
     19 C         141.0703  137.5794  162.7292 C.3     1  UNL1        0.0935
     20 C         139.5837  137.7005  162.8885 C.3     1  UNL1        0.0233
     21 C         139.0118  138.1470  161.5755 C.3     1  UNL1        0.0233
     22 C         140.1449  138.3018  160.6050 C.3     1  UNL1        0.0935
     23 C         140.5974  145.1695  161.5347 C.3     1  UNL1        0.1007
     24 C         139.8862  144.4373  162.6338 C.ar    1  UNL1        0.0129
     25 C         138.4010  144.2768  162.7691 C.ar    1  UNL1        0.0176
     26 C         138.1322  143.4774  164.0095 C.ar    1  UNL1        0.0799
     27 N         139.4514  143.1437  164.6409 N.ar    1  UNL1       -0.3038
     28 C         140.5354  143.7370  163.7906 C.ar    1  UNL1        0.0772
     29 C         139.6513  142.3553  165.9011 C.ar    1  UNL1        0.0640
     30 C         140.2664  143.0070  167.1040 C.ar    1  UNL1        0.0175
     31 C         140.4663  142.2185  168.3642 C.ar    1  UNL1        0.0053
     32 C         140.0513  140.7783  168.4217 C.ar    1  UNL1        0.0715
     33 C         139.4363  140.1265  167.2188 C.ar    1  UNL1        0.0053
     34 C         139.2363  140.9150  165.9586 C.ar    1  UNL1        0.0175
     35 C         140.2513  139.9899  169.6819 C.3     1  UNL1        0.4186
     36 F         140.4512  139.2014  170.9423 F       1  UNL1       -0.1659
     37 F         141.5558  139.4732  169.1517 F       1  UNL1       -0.1659
     38 F         138.9466  140.5065  170.2122 F       1  UNL1       -0.1659
@<TRIPOS>BOND
     1     8     9    2
     2     9     7    1
     3     7     1    1
     4     1     2    1
     5     2     3    1
     6     3     4    1
     7     4    23    1
     8    23    24    1
     9    24    25   ar
    10    25    26   ar
    11    26    27   ar
    12    27    29    1
    13    29    30   ar
    14    30    31   ar
    15    31    32   ar
    16    32    35    1
    17    35    36    1
    18    35    37    1
    19    35    38    1
    20    32    33   ar
    21    33    34   ar
    22    27    28   ar
    23     4     5    1
    24     5     6    1
    25     9    10   am
    26    10    11    1
    27    11    12    1
    28    12    13    1
    29    13    14    1
    30    14    16    1
    31    16    17    2
    32    16    18   am
    33    18    19    1
    34    19    20    1
    35    20    21    1
    36    21    22    1
    37    14    15    1
    38     6     1    1
    39    15    10    1
    40    28    24   ar
    41    22    18    1
    42    34    29   ar
@<TRIPOS>MOLECULE
*****
 38 42 0 0 0
SMALL
GASTEIGER

@<TRIPOS>ATOM
      1 C         139.4760  140.1903  158.1968 C.3     1  UNL1        0.0118
      2 C         138.1109  140.5825  158.6789 C.3     1  UNL1        0.0179
      3 C         137.6144  140.0910  160.0062 C.3     1  UNL1        0.0724
      4 N         138.4830  139.2072  160.8514 N.3     1  UNL1       -0.2689
      5 C         139.8482  138.8150  160.3693 C.3     1  UNL1        0.0724
      6 C         140.3447  139.3065  159.0420 C.3     1  UNL1        0.0179
      7 C         139.9726  140.6818  156.8694 C.3     1  UNL1        0.0854
      8 O         138.8821  142.3132  155.1667 O.2     1  UNL1       -0.2749
      9 C         139.6650  142.0810  156.4249 C.2     1  UNL1        0.2256
     10 N         140.1404  143.2481  157.2387 N.am    1  UNL1       -0.2790
     11 C         139.8328  144.6472  156.7942 C.3     1  UNL1        0.0934
     12 C         140.3082  145.8142  157.6079 C.3     1  UNL1        0.0221
     13 C         141.0911  145.5820  158.8661 C.3     1  UNL1        0.0126
     14 C         141.3987  144.1828  159.3106 C.3     1  UNL1        0.0965
     15 C         140.9233  143.0158  158.4969 C.3     1  UNL1        0.1024
     16 C         142.1817  143.9506  160.5688 C.2     1  UNL1        0.2268
     17 O         143.6045  143.4822  160.4911 O.2     1  UNL1       -0.2748
     18 N         141.5417  144.1867  161.9047 N.am    1  UNL1       -0.2795
     19 C         142.1959  143.9983  163.2413 C.3     1  UNL1        0.0935
     20 C         141.1938  144.3479  164.3013 C.3     1  UNL1        0.0233
     21 C         139.9202  144.7524  163.6197 C.3     1  UNL1        0.0233
     22 C         140.1353  144.6528  162.1385 C.3     1  UNL1        0.0935
     23 C         137.9864  138.7157  162.1788 C.3     1  UNL1        0.1007
     24 C         138.9031  138.7068  163.3660 C.ar    1  UNL1        0.0129
     25 C         139.6556  137.5197  163.8901 C.ar    1  UNL1        0.0176
     26 C         140.4458  137.9627  165.0856 C.ar    1  UNL1        0.0799
     27 N         140.1818  139.4236  165.3004 N.ar    1  UNL1       -0.3038
     28 C         139.2284  139.8835  164.2377 C.ar    1  UNL1        0.0772
     29 C         140.7683  140.2751  166.3871 C.ar    1  UNL1        0.0640
     30 C         141.9441  139.7799  167.1759 C.ar    1  UNL1        0.0175
     31 C         142.5306  140.6314  168.2626 C.ar    1  UNL1        0.0053
     32 C         141.9412  141.9781  168.5606 C.ar    1  UNL1        0.0715
     33 C         140.7654  142.4734  167.7719 C.ar    1  UNL1        0.0053
     34 C         140.1789  141.6219  166.6852 C.ar    1  UNL1        0.0175
     35 C         142.5277  142.8296  169.6473 C.3     1  UNL1        0.4186
     36 F         143.1141  143.6811  170.7341 F       1  UNL1       -0.1659
     37 F         143.8874  142.2686  169.3531 F       1  UNL1       -0.1659
     38 F         141.1680  143.3906  169.9416 F       1  UNL1       -0.1659
@<TRIPOS>BOND
     1     8     9    2
     2     9     7    1
     3     7     1    1
     4     1     2    1
     5     2     3    1
     6     3     4    1
     7     4    23    1
     8    23    24    1
     9    24    25   ar
    10    25    26   ar
    11    26    27   ar
    12    27    29    1
    13    29    30   ar
    14    30    31   ar
    15    31    32   ar
    16    32    35    1
    17    35    36    1
    18    35    37    1
    19    35    38    1
    20    32    33   ar
    21    33    34   ar
    22    27    28   ar
    23     4     5    1
    24     5     6    1
    25     9    10   am
    26    10    11    1
    27    11    12    1
    28    12    13    1
    29    13    14    1
    30    14    16    1
    31    16    17    2
    32    16    18   am
    33    18    19    1
    34    19    20    1
    35    20    21    1
    36    21    22    1
    37    14    15    1
    38     6     1    1
    39    15    10    1
    40    28    24   ar
    41    22    18    1
    42    34    29   ar
