@<TRIPOS>MOLECULE
*****
 29 33 0 0 0
SMALL
GASTEIGER

@<TRIPOS>ATOM
      1 C         137.6036  138.5079  167.2881 C.3     1  UNL1        0.0249
      2 C         138.8732  139.2144  166.9156 C.3     1  UNL1        0.0929
      3 C         139.6159  139.0689  165.6205 C.3     1  UNL1        0.0518
      4 C         140.8248  139.9551  165.6773 C.ar    1  UNL1        0.0111
      5 C         141.9220  140.2204  164.6896 C.ar    1  UNL1        0.0731
      6 C         143.0239  141.1789  165.0320 C.ar    1  UNL1        0.1531
      7 F         144.1212  141.4442  164.0443 F       1  UNL1       -0.2029
      8 C         143.0284  141.8722  166.3622 C.ar    1  UNL1        0.0323
      9 C         141.9310  141.6069  167.3499 C.ar    1  UNL1        0.0181
     10 C         141.6828  142.1489  168.7337 C.ar    1  UNL1        0.0074
     11 C         140.5246  141.7853  169.6151 C.ar    1  UNL1        0.0702
     12 C         139.4949  140.8062  169.1346 C.ar    1  UNL1        0.2618
     13 O         138.3368  140.4427  170.0159 O.2     1  UNL1       -0.2669
     14 N         139.6231  140.1906  167.7727 N.ar    1  UNL1       -0.2973
     15 C         140.8292  140.6484  167.0074 C.ar    1  UNL1        0.0598
     16 N         141.9176  139.5271  163.3594 N.pl3   1  UNL1       -0.3059
     17 C         142.7343  138.3246  162.9891 C.3     1  UNL1        0.0909
     18 C         142.4171  137.9690  161.5668 C.3     1  UNL1        0.0244
     19 C         141.4043  138.9516  161.0581 C.3     1  UNL1        0.0344
     20 C         141.0956  139.9145  162.1660 C.3     1  UNL1        0.0921
     21 C         140.8054  138.9683  159.6829 C.3     1  UNL1        0.0406
     22 N         141.9491  139.5521  158.9078 N.3     1  UNL1       -0.3231
     23 C         139.8092  138.7822  158.5771 C.3     1  UNL1        0.0156
     24 C         139.4536  138.3903  159.9806 C.3     1  UNL1        0.0156
     25 H         142.7275  139.7396  159.5397 H       1  UNL1        0.1188
     26 H         141.6519  140.4226  158.4670 H       1  UNL1        0.1188
     27 C         140.3964  142.4009  170.9769 C.2     1  UNL1        0.0775
     28 O         139.2570  143.3296  171.2759 O.co2   1  UNL1       -0.5444
     29 O         141.4075  142.0878  172.0397 O.co2   1  UNL1       -0.5444
@<TRIPOS>UNITY_ATOM_ATTR
28 1
charge -1
@<TRIPOS>BOND
     1     2     1    1
     2     2     3    1
     3     3     4    1
     4     4     5   ar
     5     5    16    1
     6    16    17    1
     7    17    18    1
     8    18    19    1
     9    19    21    1
    10    21    22    1
    11    21    23    1
    12    23    24    1
    13    19    20    1
    14     5     6   ar
    15     6     7    1
    16     6     8   ar
    17     8     9   ar
    18     9    10   ar
    19    10    11   ar
    20    11    27    1
    21    27    28   ar
    22    27    29   ar
    23    11    12   ar
    24    12    13    2
    25    12    14   ar
    26    14    15   ar
    27    14     2    1
    28    15     4   ar
    29    20    16    1
    30    15     9   ar
    31    24    21    1
    32    22    25    1
    33    22    26    1
@<TRIPOS>MOLECULE
*****
 29 33 0 0 0
SMALL
GASTEIGER

@<TRIPOS>ATOM
      1 C         137.0247  138.0143  167.6964 C.3     1  UNL1        0.0249
      2 C         138.0970  138.8624  167.0793 C.3     1  UNL1        0.0929
      3 C         138.4747  138.8881  165.6279 C.3     1  UNL1        0.0518
      4 C         139.5910  139.8753  165.4568 C.ar    1  UNL1        0.0111
      5 C         140.3635  140.3176  164.2495 C.ar    1  UNL1        0.0731
      6 C         141.4483  141.3443  164.3879 C.ar    1  UNL1        0.1531
      7 F         142.2208  141.7866  163.1806 F       1  UNL1       -0.2029
      8 C         141.7606  141.9287  165.7336 C.ar    1  UNL1        0.0323
      9 C         140.9880  141.4864  166.9409 C.ar    1  UNL1        0.0181
     10 C         141.0820  141.8931  168.3887 C.ar    1  UNL1        0.0074
     11 C         140.2294  141.3559  169.4999 C.ar    1  UNL1        0.0702
     12 C         139.1783  140.3263  169.2081 C.ar    1  UNL1        0.2618
     13 O         138.3257  139.7892  170.3192 O.2     1  UNL1       -0.2669
     14 N         138.9799  139.8337  167.8052 N.ar    1  UNL1       -0.2973
     15 C         139.9032  140.4597  166.8025 C.ar    1  UNL1        0.0598
     16 N         140.0513  139.7332  162.9038 N.pl3   1  UNL1       -0.3059
     17 C         140.1690  138.2874  162.5215 C.3     1  UNL1        0.0909
     18 C         139.7569  138.1527  161.0855 C.3     1  UNL1        0.0244
     19 C         139.3846  139.5151  160.5803 C.3     1  UNL1        0.0344
     20 C         139.5665  140.4918  161.7040 C.3     1  UNL1        0.0921
     21 C         138.9131  139.8431  159.1946 C.3     1  UNL1        0.0406
     22 N         137.4347  139.9236  159.4348 N.3     1  UNL1       -0.3231
     23 C         138.9552  140.1431  157.7255 C.3     1  UNL1        0.0156
     24 C         140.2278  139.8764  158.4732 C.3     1  UNL1        0.0156
     25 H         137.2394  139.7374  160.4184 H       1  UNL1        0.1188
     26 H         136.9581  139.2315  158.8566 H       1  UNL1        0.1188
     27 C         140.4278  141.8485  170.9028 C.2     1  UNL1        0.0775
     28 O         141.4769  141.2253  171.7751 O.co2   1  UNL1       -0.5444
     29 O         139.5770  142.9642  171.4332 O.co2   1  UNL1       -0.5444
@<TRIPOS>UNITY_ATOM_ATTR
28 1
charge -1
@<TRIPOS>BOND
     1     2     1    1
     2     2     3    1
     3     3     4    1
     4     4     5   ar
     5     5    16    1
     6    16    17    1
     7    17    18    1
     8    18    19    1
     9    19    21    1
    10    21    22    1
    11    21    23    1
    12    23    24    1
    13    19    20    1
    14     5     6   ar
    15     6     7    1
    16     6     8   ar
    17     8     9   ar
    18     9    10   ar
    19    10    11   ar
    20    11    27    1
    21    27    28   ar
    22    27    29   ar
    23    11    12   ar
    24    12    13    2
    25    12    14   ar
    26    14    15   ar
    27    14     2    1
    28    15     4   ar
    29    20    16    1
    30    15     9   ar
    31    24    21    1
    32    22    25    1
    33    22    26    1
@<TRIPOS>MOLECULE
*****
 29 33 0 0 0
SMALL
GASTEIGER

@<TRIPOS>ATOM
      1 C         138.0585  144.2980  163.1617 C.3     1  UNL1        0.0249
      2 C         138.2609  142.8184  163.3027 C.3     1  UNL1        0.0929
      3 C         138.3998  142.0665  164.5932 C.3     1  UNL1        0.0518
      4 C         138.5846  140.6143  164.2661 C.ar    1  UNL1        0.0111
      5 C         138.7721  139.4059  165.1346 C.ar    1  UNL1        0.0731
      6 C         138.9350  138.0516  164.5104 C.ar    1  UNL1        0.1531
      7 F         139.1226  136.8431  165.3789 F       1  UNL1       -0.2029
      8 C         138.9103  137.9059  163.0177 C.ar    1  UNL1        0.0323
      9 C         138.7227  139.1145  162.1492 C.ar    1  UNL1        0.0181
     10 C         138.6582  139.2655  160.6514 C.ar    1  UNL1        0.0074
     11 C         138.4633  140.5580  159.9154 C.ar    1  UNL1        0.0702
     12 C         138.3141  141.8406  160.6787 C.ar    1  UNL1        0.2618
     13 O         138.1192  143.1330  159.9428 O.2     1  UNL1       -0.2669
     14 N         138.3598  141.8308  162.1780 N.ar    1  UNL1       -0.2973
     15 C         138.5599  140.4687  162.7734 C.ar    1  UNL1        0.0598
     16 N         138.7968  139.5515  166.6273 N.pl3   1  UNL1       -0.3059
     17 C         137.7502  139.0530  167.5793 C.3     1  UNL1        0.0909
     18 C         138.1791  139.4147  168.9705 C.3     1  UNL1        0.0244
     19 C         139.4906  140.1367  168.8783 C.3     1  UNL1        0.0344
     20 C         139.8724  140.2213  167.4302 C.3     1  UNL1        0.0921
     21 C         140.2815  140.6790  170.0317 C.3     1  UNL1        0.0406
     22 N         140.8476  139.4035  170.5819 N.3     1  UNL1       -0.3231
     23 C         140.8758  141.6643  170.9940 C.3     1  UNL1        0.0156
     24 C         139.9901  142.1428  169.8821 C.3     1  UNL1        0.0156
     25 H         140.5250  138.6172  170.0179 H       1  UNL1        0.1188
     26 H         140.5362  139.2812  171.5455 H       1  UNL1        0.1188
     27 C         138.4176  140.5678  158.4161 C.2     1  UNL1        0.0775
     28 O         137.1021  140.4502  157.7051 O.co2   1  UNL1       -0.5444
     29 O         139.6874  140.6953  157.6280 O.co2   1  UNL1       -0.5444
@<TRIPOS>UNITY_ATOM_ATTR
28 1
charge -1
@<TRIPOS>BOND
     1     2     1    1
     2     2     3    1
     3     3     4    1
     4     4     5   ar
     5     5    16    1
     6    16    17    1
     7    17    18    1
     8    18    19    1
     9    19    21    1
    10    21    22    1
    11    21    23    1
    12    23    24    1
    13    19    20    1
    14     5     6   ar
    15     6     7    1
    16     6     8   ar
    17     8     9   ar
    18     9    10   ar
    19    10    11   ar
    20    11    27    1
    21    27    28   ar
    22    27    29   ar
    23    11    12   ar
    24    12    13    2
    25    12    14   ar
    26    14    15   ar
    27    14     2    1
    28    15     4   ar
    29    20    16    1
    30    15     9   ar
    31    24    21    1
    32    22    25    1
    33    22    26    1
@<TRIPOS>MOLECULE
*****
 29 33 0 0 0
SMALL
GASTEIGER

@<TRIPOS>ATOM
      1 C         138.7010  138.4775  166.0611 C.3     1  UNL1        0.0249
      2 C         139.8749  139.4112  166.0465 C.3     1  UNL1        0.0929
      3 C         140.8040  139.6414  164.8916 C.3     1  UNL1        0.0518
      4 C         141.8291  140.6511  165.3155 C.ar    1  UNL1        0.0111
      5 C         142.9935  141.2628  164.5944 C.ar    1  UNL1        0.0731
      6 C         143.8624  142.2683  165.2901 C.ar    1  UNL1        0.1531
      7 F         145.0267  142.8799  164.5690 F       1  UNL1       -0.2029
      8 C         143.5669  142.6620  166.7070 C.ar    1  UNL1        0.0323
      9 C         142.4024  142.0503  167.4282 C.ar    1  UNL1        0.0181
     10 C         141.8779  142.2522  168.8262 C.ar    1  UNL1        0.0074
     11 C         140.6852  141.5593  169.4158 C.ar    1  UNL1        0.0702
     12 C         139.9092  140.5725  168.5948 C.ar    1  UNL1        0.2618
     13 O         138.7166  139.8797  169.1845 O.2     1  UNL1       -0.2669
     14 N         140.3258  140.2785  167.1841 N.ar    1  UNL1       -0.2973
     15 C         141.5336  141.0448  166.7324 C.ar    1  UNL1        0.0598
     16 N         143.2890  140.8690  163.1775 N.pl3   1  UNL1       -0.3059
     17 C         143.9706  139.6075  162.7368 C.3     1  UNL1        0.0909
     18 C         144.0577  139.6265  161.2394 C.3     1  UNL1        0.0244
     19 C         143.4298  140.8996  160.7547 C.3     1  UNL1        0.0344
     20 C         142.9548  141.6675  161.9524 C.3     1  UNL1        0.0921
     21 C         143.2999  141.3294  159.3234 C.3     1  UNL1        0.0406
     22 N         142.1422  140.4752  158.8991 N.3     1  UNL1       -0.3231
     23 C         143.5721  142.0559  158.0397 C.3     1  UNL1        0.0156
     24 C         144.4125  142.3329  159.2508 C.3     1  UNL1        0.0156
     25 H         141.8336  139.9053  159.6867 H       1  UNL1        0.1188
     26 H         142.4310  139.8677  158.1323 H       1  UNL1        0.1188
     27 C         140.2686  141.8533  170.8265 C.2     1  UNL1        0.0775
     28 O         140.6020  140.8867  171.9240 O.co2   1  UNL1       -0.5444
     29 O         139.5185  143.1140  171.1397 O.co2   1  UNL1       -0.5444
@<TRIPOS>UNITY_ATOM_ATTR
28 1
charge -1
@<TRIPOS>BOND
     1     2     1    1
     2     2     3    1
     3     3     4    1
     4     4     5   ar
     5     5    16    1
     6    16    17    1
     7    17    18    1
     8    18    19    1
     9    19    21    1
    10    21    22    1
    11    21    23    1
    12    23    24    1
    13    19    20    1
    14     5     6   ar
    15     6     7    1
    16     6     8   ar
    17     8     9   ar
    18     9    10   ar
    19    10    11   ar
    20    11    27    1
    21    27    28   ar
    22    27    29   ar
    23    11    12   ar
    24    12    13    2
    25    12    14   ar
    26    14    15   ar
    27    14     2    1
    28    15     4   ar
    29    20    16    1
    30    15     9   ar
    31    24    21    1
    32    22    25    1
    33    22    26    1
@<TRIPOS>MOLECULE
*****
 29 33 0 0 0
SMALL
GASTEIGER

@<TRIPOS>ATOM
      1 C         143.9794  142.9446  166.2789 C.3     1  UNL1        0.0249
      2 C         142.8345  141.9786  166.2017 C.3     1  UNL1        0.0929
      3 C         142.4807  141.1232  165.0214 C.3     1  UNL1        0.0518
      4 C         141.2699  140.3143  165.3814 C.ar    1  UNL1        0.0111
      5 C         140.4756  139.3000  164.6132 C.ar    1  UNL1        0.0731
      6 C         139.2868  138.6410  165.2478 C.ar    1  UNL1        0.1531
      7 F         138.4926  137.6268  164.4795 F       1  UNL1       -0.2029
      8 C         138.8924  138.9964  166.6506 C.ar    1  UNL1        0.0323
      9 C         139.6867  140.0108  167.4189 C.ar    1  UNL1        0.0181
     10 C         139.5262  140.5530  168.8156 C.ar    1  UNL1        0.0074
     11 C         140.4117  141.5801  169.4567 C.ar    1  UNL1        0.0702
     12 C         141.5698  142.1527  168.6945 C.ar    1  UNL1        0.2618
     13 O         142.4553  143.1798  169.3356 O.2     1  UNL1       -0.2669
     14 N         141.8424  141.6983  167.2912 N.ar    1  UNL1       -0.2973
     15 C         140.8754  140.6697  166.7843 C.ar    1  UNL1        0.0598
     16 N         140.8701  138.9446  163.2103 N.pl3   1  UNL1       -0.3059
     17 C         141.8022  137.8397  162.8095 C.3     1  UNL1        0.0909
     18 C         141.9098  137.8440  161.3134 C.3     1  UNL1        0.0244
     19 C         141.0444  138.9514  160.7895 C.3     1  UNL1        0.0344
     20 C         140.4018  139.6316  161.9618 C.3     1  UNL1        0.0921
     21 C         140.8547  139.3149  159.3466 C.3     1  UNL1        0.0406
     22 N         139.6371  138.4982  159.0302 N.3     1  UNL1       -0.3231
     23 C         141.0881  139.9620  158.0136 C.3     1  UNL1        0.0156
     24 C         142.0066  140.2578  159.1620 C.3     1  UNL1        0.0156
     25 H         139.3468  137.9842  159.8620 H       1  UNL1        0.1188
     26 H         139.8543  137.8397  158.2821 H       1  UNL1        0.1188
     27 C         140.1391  142.0345  170.8600 C.2     1  UNL1        0.0775
     28 O         140.6760  141.2498  172.0201 O.co2   1  UNL1       -0.5444
     29 O         139.3296  143.2738  171.1030 O.co2   1  UNL1       -0.5444
@<TRIPOS>UNITY_ATOM_ATTR
28 1
charge -1
@<TRIPOS>BOND
     1     2     1    1
     2     2     3    1
     3     3     4    1
     4     4     5   ar
     5     5    16    1
     6    16    17    1
     7    17    18    1
     8    18    19    1
     9    19    21    1
    10    21    22    1
    11    21    23    1
    12    23    24    1
    13    19    20    1
    14     5     6   ar
    15     6     7    1
    16     6     8   ar
    17     8     9   ar
    18     9    10   ar
    19    10    11   ar
    20    11    27    1
    21    27    28   ar
    22    27    29   ar
    23    11    12   ar
    24    12    13    2
    25    12    14   ar
    26    14    15   ar
    27    14     2    1
    28    15     4   ar
    29    20    16    1
    30    15     9   ar
    31    24    21    1
    32    22    25    1
    33    22    26    1
@<TRIPOS>MOLECULE
*****
 29 33 0 0 0
SMALL
GASTEIGER

@<TRIPOS>ATOM
      1 C         143.7218  138.2551  166.2984 C.3     1  UNL1        0.0249
      2 C         142.8622  139.4649  166.0808 C.3     1  UNL1        0.0929
      3 C         142.5496  140.0979  164.7573 C.3     1  UNL1        0.0518
      4 C         141.6584  141.2783  165.0069 C.ar    1  UNL1        0.0111
      5 C         141.0330  142.2777  164.0795 C.ar    1  UNL1        0.0731
      6 C         140.1694  143.3738  164.6299 C.ar    1  UNL1        0.1531
      7 F         139.5441  144.3732  163.7025 F       1  UNL1       -0.2029
      8 C         139.9313  143.4704  166.1078 C.ar    1  UNL1        0.0323
      9 C         140.5567  142.4710  167.0352 C.ar    1  UNL1        0.0181
     10 C         140.4933  142.3254  168.5335 C.ar    1  UNL1        0.0074
     11 C         141.1818  141.2594  169.3335 C.ar    1  UNL1        0.0702
     12 C         142.0172  140.2239  168.6409 C.ar    1  UNL1        0.2618
     13 O         142.7057  139.1580  169.4408 O.2     1  UNL1       -0.2669
     14 N         142.1642  140.2542  167.1484 N.ar    1  UNL1       -0.2973
     15 C         141.4202  141.3750  166.4847 C.ar    1  UNL1        0.0598
     16 N         141.2712  142.1811  162.6017 N.pl3   1  UNL1       -0.3059
     17 C         140.3885  141.4824  161.6102 C.3     1  UNL1        0.0909
     18 C         141.0057  141.6357  160.2516 C.3     1  UNL1        0.0244
     19 C         142.2697  142.4290  160.4035 C.3     1  UNL1        0.0344
     20 C         142.4337  142.7660  161.8559 C.3     1  UNL1        0.0921
     21 C         143.2053  142.8171  159.2971 C.3     1  UNL1        0.0406
     22 N         142.6669  144.1773  158.9659 N.3     1  UNL1       -0.3231
     23 C         144.3279  142.7327  158.3059 C.3     1  UNL1        0.0156
     24 C         144.0686  141.5915  159.2442 C.3     1  UNL1        0.0156
     25 H         141.8749  144.3867  159.5736 H       1  UNL1        0.1188
     26 H         142.3626  144.1947  157.9926 H       1  UNL1        0.1188
     27 C         141.0348  141.2291  170.8260 C.2     1  UNL1        0.0775
     28 O         141.8195  142.1835  171.6764 O.co2   1  UNL1       -0.5444
     29 O         140.1031  140.2442  171.4679 O.co2   1  UNL1       -0.5444
@<TRIPOS>UNITY_ATOM_ATTR
28 1
charge -1
@<TRIPOS>BOND
     1     2     1    1
     2     2     3    1
     3     3     4    1
     4     4     5   ar
     5     5    16    1
     6    16    17    1
     7    17    18    1
     8    18    19    1
     9    19    21    1
    10    21    22    1
    11    21    23    1
    12    23    24    1
    13    19    20    1
    14     5     6   ar
    15     6     7    1
    16     6     8   ar
    17     8     9   ar
    18     9    10   ar
    19    10    11   ar
    20    11    27    1
    21    27    28   ar
    22    27    29   ar
    23    11    12   ar
    24    12    13    2
    25    12    14   ar
    26    14    15   ar
    27    14     2    1
    28    15     4   ar
    29    20    16    1
    30    15     9   ar
    31    24    21    1
    32    22    25    1
    33    22    26    1
@<TRIPOS>MOLECULE
*****
 29 33 0 0 0
SMALL
GASTEIGER

@<TRIPOS>ATOM
      1 C         142.3949  140.1669  160.4094 C.3     1  UNL1        0.0249
      2 C         141.6575  141.1840  161.2290 C.3     1  UNL1        0.0929
      3 C         141.1273  140.9811  162.6174 C.3     1  UNL1        0.0518
      4 C         140.4628  142.2542  163.0506 C.ar    1  UNL1        0.0111
      5 C         139.7644  142.6401  164.3207 C.ar    1  UNL1        0.0731
      6 C         139.1855  144.0159  164.4702 C.ar    1  UNL1        0.1531
      7 F         138.4871  144.4018  165.7403 F       1  UNL1       -0.2029
      8 C         139.3050  145.0056  163.3494 C.ar    1  UNL1        0.0323
      9 C         140.0035  144.6197  162.0793 C.ar    1  UNL1        0.0181
     10 C         140.2679  145.3918  160.8127 C.ar    1  UNL1        0.0074
     11 C         140.9903  144.8652  159.6081 C.ar    1  UNL1        0.0702
     12 C         141.5167  143.4606  159.6038 C.ar    1  UNL1        0.2618
     13 O         142.2390  142.9340  158.3993 O.2     1  UNL1       -0.2669
     14 N         141.3207  142.5825  160.8041 N.ar    1  UNL1       -0.2973
     15 C         140.5824  143.2440  161.9299 C.ar    1  UNL1        0.0598
     16 N         139.6449  141.6503  165.4414 N.pl3   1  UNL1       -0.3059
     17 C         138.7858  140.4206  165.4439 C.3     1  UNL1        0.0909
     18 C         138.9735  139.7268  166.7605 C.3     1  UNL1        0.0244
     19 C         139.9484  140.5276  167.5717 C.3     1  UNL1        0.0344
     20 C         140.3633  141.7164  166.7565 C.3     1  UNL1        0.0921
     21 C         140.4248  140.1976  168.9553 C.3     1  UNL1        0.0406
     22 N         141.8319  139.7756  168.6525 N.3     1  UNL1       -0.3231
     23 C         140.4123  140.0142  170.4440 C.3     1  UNL1        0.0156
     24 C         139.1830  140.5050  169.7385 C.3     1  UNL1        0.0156
     25 H         141.9998  139.8471  167.6489 H       1  UNL1        0.1188
     26 H         141.9694  138.8105  168.9523 H       1  UNL1        0.1188
     27 C         141.1863  145.7433  158.4078 C.2     1  UNL1        0.0775
     28 O         142.5646  146.1960  158.0268 O.co2   1  UNL1       -0.5444
     29 O         140.0038  146.1685  157.5886 O.co2   1  UNL1       -0.5444
@<TRIPOS>UNITY_ATOM_ATTR
28 1
charge -1
@<TRIPOS>BOND
     1     2     1    1
     2     2     3    1
     3     3     4    1
     4     4     5   ar
     5     5    16    1
     6    16    17    1
     7    17    18    1
     8    18    19    1
     9    19    21    1
    10    21    22    1
    11    21    23    1
    12    23    24    1
    13    19    20    1
    14     5     6   ar
    15     6     7    1
    16     6     8   ar
    17     8     9   ar
    18     9    10   ar
    19    10    11   ar
    20    11    27    1
    21    27    28   ar
    22    27    29   ar
    23    11    12   ar
    24    12    13    2
    25    12    14   ar
    26    14    15   ar
    27    14     2    1
    28    15     4   ar
    29    20    16    1
    30    15     9   ar
    31    24    21    1
    32    22    25    1
    33    22    26    1
@<TRIPOS>MOLECULE
*****
 29 33 0 0 0
SMALL
GASTEIGER

@<TRIPOS>ATOM
      1 C         144.1015  137.6411  166.9389 C.3     1  UNL1        0.0249
      2 C         143.3052  138.8403  166.5173 C.3     1  UNL1        0.0929
      3 C         143.1569  139.3517  165.1150 C.3     1  UNL1        0.0518
      4 C         142.2774  140.5661  165.1551 C.ar    1  UNL1        0.0111
      5 C         141.7854  141.4851  164.0765 C.ar    1  UNL1        0.0731
      6 C         140.8980  142.6433  164.4249 C.ar    1  UNL1        0.1531
      7 F         140.4061  143.5622  163.3463 F       1  UNL1       -0.2029
      8 C         140.5027  142.8824  165.8520 C.ar    1  UNL1        0.0323
      9 C         140.9947  141.9634  166.9306 C.ar    1  UNL1        0.0181
     10 C         140.7640  141.9602  168.4196 C.ar    1  UNL1        0.0074
     11 C         141.3307  140.9618  169.3852 C.ar    1  UNL1        0.0702
     12 C         142.2073  139.8511  168.8874 C.ar    1  UNL1        0.2618
     13 O         142.7740  138.8528  169.8529 O.2     1  UNL1       -0.2669
     14 N         142.5173  139.7386  167.4240 N.ar    1  UNL1       -0.2973
     15 C         141.8820  140.8053  166.5822 C.ar    1  UNL1        0.0598
     16 N         142.1807  141.2460  162.6494 N.pl3   1  UNL1       -0.3059
     17 C         143.1086  142.0996  161.8366 C.3     1  UNL1        0.0909
     18 C         143.2189  141.4924  160.4694 C.3     1  UNL1        0.0244
     19 C         142.3593  140.2636  160.4372 C.3     1  UNL1        0.0344
     20 C         141.7177  140.1113  161.7845 C.3     1  UNL1        0.0921
     21 C         142.1739  139.3478  159.2638 C.3     1  UNL1        0.0406
     22 N         143.4438  138.5542  159.3496 N.3     1  UNL1       -0.3231
     23 C         141.5473  138.7077  158.0606 C.3     1  UNL1        0.0156
     24 C         140.8395  139.8234  158.7706 C.3     1  UNL1        0.0156
     25 H         143.9959  138.8808  160.1426 H       1  UNL1        0.1188
     26 H         143.9790  138.6752  158.4898 H       1  UNL1        0.1188
     27 C         141.0208  141.0743  170.8485 C.2     1  UNL1        0.0775
     28 O         139.9720  140.1952  171.4627 O.co2   1  UNL1       -0.5444
     29 O         141.7597  142.0659  171.6975 O.co2   1  UNL1       -0.5444
@<TRIPOS>UNITY_ATOM_ATTR
28 1
charge -1
@<TRIPOS>BOND
     1     2     1    1
     2     2     3    1
     3     3     4    1
     4     4     5   ar
     5     5    16    1
     6    16    17    1
     7    17    18    1
     8    18    19    1
     9    19    21    1
    10    21    22    1
    11    21    23    1
    12    23    24    1
    13    19    20    1
    14     5     6   ar
    15     6     7    1
    16     6     8   ar
    17     8     9   ar
    18     9    10   ar
    19    10    11   ar
    20    11    27    1
    21    27    28   ar
    22    27    29   ar
    23    11    12   ar
    24    12    13    2
    25    12    14   ar
    26    14    15   ar
    27    14     2    1
    28    15     4   ar
    29    20    16    1
    30    15     9   ar
    31    24    21    1
    32    22    25    1
    33    22    26    1
@<TRIPOS>MOLECULE
*****
 29 33 0 0 0
SMALL
GASTEIGER

@<TRIPOS>ATOM
      1 C         143.7500  137.9233  167.1452 C.3     1  UNL1        0.0249
      2 C         142.7827  138.9496  166.6343 C.3     1  UNL1        0.0929
      3 C         142.1576  138.9705  165.2710 C.3     1  UNL1        0.0518
      4 C         141.2593  140.1691  165.1911 C.ar    1  UNL1        0.0111
      5 C         140.3867  140.6979  164.0916 C.ar    1  UNL1        0.0731
      6 C         139.5840  141.9468  164.3061 C.ar    1  UNL1        0.1531
      7 F         138.7114  142.4757  163.2067 F       1  UNL1       -0.2029
      8 C         139.6539  142.6668  165.6202 C.ar    1  UNL1        0.0323
      9 C         140.5266  142.1379  166.7197 C.ar    1  UNL1        0.0181
     10 C         140.7879  142.6426  168.1152 C.ar    1  UNL1        0.0074
     11 C         141.7000  141.9977  169.1164 C.ar    1  UNL1        0.0702
     12 C         142.4414  140.7442  168.7573 C.ar    1  UNL1        0.2618
     13 O         143.3534  140.0994  169.7585 O.2     1  UNL1       -0.2669
     14 N         142.2707  140.1354  167.3971 N.ar    1  UNL1       -0.2973
     15 C         141.3292  140.8891  166.5051 C.ar    1  UNL1        0.0598
     16 N         140.3168  139.9779  162.7776 N.pl3   1  UNL1       -0.3059
     17 C         139.2101  139.0711  162.3268 C.3     1  UNL1        0.0909
     18 C         139.5507  138.5711  160.9542 C.3     1  UNL1        0.0244
     19 C         140.8678  139.1688  160.5566 C.3     1  UNL1        0.0344
     20 C         141.3412  140.0383  161.6835 C.3     1  UNL1        0.0921
     21 C         141.5854  138.9377  159.2599 C.3     1  UNL1        0.0406
     22 N         140.7854  139.8292  158.3571 N.3     1  UNL1       -0.3231
     23 C         142.5808  138.3969  158.2767 C.3     1  UNL1        0.0156
     24 C         142.6345  137.9658  159.7124 C.3     1  UNL1        0.0156
     25 H         140.0465  140.2825  158.8946 H       1  UNL1        0.1188
     26 H         140.3699  139.2722  157.6104 H       1  UNL1        0.1188
     27 C         141.8706  142.6065  170.4767 C.2     1  UNL1        0.0775
     28 O         142.9124  143.6622  170.7006 O.co2   1  UNL1       -0.5444
     29 O         140.9994  142.1595  171.6130 O.co2   1  UNL1       -0.5444
@<TRIPOS>UNITY_ATOM_ATTR
28 1
charge -1
@<TRIPOS>BOND
     1     2     1    1
     2     2     3    1
     3     3     4    1
     4     4     5   ar
     5     5    16    1
     6    16    17    1
     7    17    18    1
     8    18    19    1
     9    19    21    1
    10    21    22    1
    11    21    23    1
    12    23    24    1
    13    19    20    1
    14     5     6   ar
    15     6     7    1
    16     6     8   ar
    17     8     9   ar
    18     9    10   ar
    19    10    11   ar
    20    11    27    1
    21    27    28   ar
    22    27    29   ar
    23    11    12   ar
    24    12    13    2
    25    12    14   ar
    26    14    15   ar
    27    14     2    1
    28    15     4   ar
    29    20    16    1
    30    15     9   ar
    31    24    21    1
    32    22    25    1
    33    22    26    1
