@<TRIPOS>MOLECULE
*****
 30 34 0 0 0
SMALL
GASTEIGER

@<TRIPOS>ATOM
      1 C         139.6290  140.3966  166.9511 C.ar    1  UNL1        0.0015
      2 C         139.7001  138.9191  166.7023 C.ar    1  UNL1        0.0031
      3 C         139.2719  138.3601  165.3779 C.ar    1  UNL1        0.0366
      4 C         138.7725  139.2786  164.3023 C.ar    1  UNL1        0.1360
      5 C         138.7013  140.7561  164.5510 C.ar    1  UNL1        0.0357
      6 C         139.1296  141.3151  165.8755 C.ar    1  UNL1        0.0007
      7 C         138.2019  141.6745  163.4754 C.3     1  UNL1        0.1580
      8 C         137.7268  142.7109  162.5006 C.3     1  UNL1        0.2351
      9 O         137.8247  144.0521  163.1654 O.2     1  UNL1       -0.4478
     10 C         138.3603  143.8446  164.5511 C.2     1  UNL1        0.2770
     11 N         138.6175  144.9178  165.5668 N.pl3   1  UNL1       -0.3133
     12 N         138.5934  142.3752  164.7427 N.2     1  UNL1       -0.2202
     13 C         137.7737  141.1156  162.1510 C.3     1  UNL1        0.1141
     14 C         137.9130  140.8593  162.4511 C.3     1  UNL1        0.1501
     15 O         137.7665  141.1287  162.1357 O.3     1  UNL1       -0.3532
     16 C         137.9130  140.8593  162.4511 C.3     1  UNL1        0.1501
     17 C         137.8448  139.6381  161.9022 C.3     1  UNL1        0.1398
     18 C         137.7284  138.3207  161.1945 C.3     1  UNL1        0.0438
     19 C         137.3050  140.0990  160.5807 C.3     1  UNL1        0.0438
     20 O         138.3442  138.7196  162.9779 O.3     1  UNL1       -0.4826
     21 H         138.4319  145.8591  165.3460 H       1  UNL1        0.1466
     22 H         138.9720  144.6810  166.4542 H       1  UNL1        0.1466
     23 C         141.7164  142.3671  169.6915 C.ar    1  UNL1        0.1578
     24 C         140.9139  142.0737  170.9243 C.ar    1  UNL1        0.1356
     25 N         139.6830  141.2213  170.8327 N.ar    1  UNL1       -0.2391
     26 C         139.2547  140.6622  169.5083 C.ar    1  UNL1        0.0991
     27 C         140.0573  140.9556  168.2755 C.ar    1  UNL1        0.0222
     28 C         141.2882  141.8081  168.3671 C.ar    1  UNL1        0.0401
     29 C         144.2958  142.5772  169.9212 C.3     1  UNL1        0.2525
     30 O         142.9473  143.2194  169.7831 O.3     1  UNL1       -0.4699
@<TRIPOS>BOND
     1    29    30    1
     2    30    23    1
     3    23    24   ar
     4    24    25   ar
     5    25    26   ar
     6    26    27   ar
     7    27     1    1
     8     1     2   ar
     9     2     3   ar
    10     3     4   ar
    11     4     5   ar
    12     5     6   ar
    13     5     7    1
    14     7     8    1
    15     8     9    1
    16     9    10    1
    17    10    11    1
    18    10    12    2
    19     7    13    1
    20    13    14    1
    21    14    15    1
    22    15    16    1
    23    13    17    1
    24    17    18    1
    25    17    19    1
    26    17    20    1
    27    27    28   ar
    28    28    23   ar
    29     6     1   ar
    30    12     7    1
    31    16    13    1
    32    20     4    1
    33    11    21    1
    34    11    22    1
@<TRIPOS>MOLECULE
*****
 30 34 0 0 0
SMALL
GASTEIGER

@<TRIPOS>ATOM
      1 C         142.9202  141.9603  165.0778 C.ar    1  UNL1        0.0015
      2 C         143.5959  142.5686  166.2710 C.ar    1  UNL1        0.0031
      3 C         143.0184  142.3719  167.6412 C.ar    1  UNL1        0.0366
      4 C         141.7651  141.5670  167.8185 C.ar    1  UNL1        0.1360
      5 C         141.0894  140.9588  166.6255 C.ar    1  UNL1        0.0357
      6 C         141.6669  141.1554  165.2551 C.ar    1  UNL1        0.0007
      7 C         139.8361  140.1539  166.8027 C.3     1  UNL1        0.1580
      8 C         138.5837  139.3285  166.8243 C.3     1  UNL1        0.2351
      9 O         138.2676  138.9287  165.4135 O.2     1  UNL1       -0.4478
     10 C         139.3246  139.5070  164.5200 C.2     1  UNL1        0.2770
     11 N         139.3992  139.3548  163.0297 N.pl3   1  UNL1       -0.3133
     12 N         140.2940  140.2642  165.3785 N.2     1  UNL1       -0.2202
     13 C         139.2586  139.9572  168.1730 C.3     1  UNL1        0.1141
     14 C         139.6082  140.1818  168.1236 C.3     1  UNL1        0.1501
     15 O         139.2407  139.9457  168.1756 O.3     1  UNL1       -0.3532
     16 C         139.6082  140.1818  168.1236 C.3     1  UNL1        0.1501
     17 C         139.9343  140.5654  169.3661 C.3     1  UNL1        0.1398
     18 C         140.2078  140.9391  170.7928 C.3     1  UNL1        0.0438
     19 C         138.7760  139.8903  170.0389 C.3     1  UNL1        0.0438
     20 O         141.1876  141.3703  169.1888 O.3     1  UNL1       -0.4826
     21 H         138.7119  138.8358  162.5528 H       1  UNL1        0.1466
     22 H         140.1355  139.7740  162.5283 H       1  UNL1        0.1466
     23 C         143.3980  143.2709  161.3625 C.ar    1  UNL1        0.1578
     24 C         144.6527  142.5504  160.9669 C.ar    1  UNL1        0.1356
     25 N         145.3299  141.6332  161.9416 N.ar    1  UNL1       -0.2391
     26 C         144.7524  141.4365  163.3119 C.ar    1  UNL1        0.0991
     27 C         143.4977  142.1570  163.7075 C.ar    1  UNL1        0.0222
     28 C         142.8205  143.0743  162.7328 C.ar    1  UNL1        0.0401
     29 C         141.3632  144.7444  160.7003 C.3     1  UNL1        0.2525
     30 O         142.7208  144.1882  160.3878 O.3     1  UNL1       -0.4699
@<TRIPOS>BOND
     1    29    30    1
     2    30    23    1
     3    23    24   ar
     4    24    25   ar
     5    25    26   ar
     6    26    27   ar
     7    27     1    1
     8     1     2   ar
     9     2     3   ar
    10     3     4   ar
    11     4     5   ar
    12     5     6   ar
    13     5     7    1
    14     7     8    1
    15     8     9    1
    16     9    10    1
    17    10    11    1
    18    10    12    2
    19     7    13    1
    20    13    14    1
    21    14    15    1
    22    15    16    1
    23    13    17    1
    24    17    18    1
    25    17    19    1
    26    17    20    1
    27    27    28   ar
    28    28    23   ar
    29     6     1   ar
    30    12     7    1
    31    16    13    1
    32    20     4    1
    33    11    21    1
    34    11    22    1
@<TRIPOS>MOLECULE
*****
 30 34 0 0 0
SMALL
GASTEIGER

@<TRIPOS>ATOM
      1 C         142.7167  141.4321  164.6469 C.ar    1  UNL1        0.0015
      2 C         143.5001  142.1856  165.6806 C.ar    1  UNL1        0.0031
      3 C         143.0373  142.2028  167.1073 C.ar    1  UNL1        0.0366
      4 C         141.7911  141.4664  167.5004 C.ar    1  UNL1        0.1360
      5 C         141.0076  140.7128  166.4668 C.ar    1  UNL1        0.0357
      6 C         141.4704  140.6957  165.0400 C.ar    1  UNL1        0.0007
      7 C         139.7613  139.9764  166.8599 C.3     1  UNL1        0.1580
      8 C         138.5025  139.1975  167.1024 C.3     1  UNL1        0.2351
      9 O         138.0623  138.6092  165.7946 O.2     1  UNL1       -0.4478
     10 C         139.0490  139.0244  164.7439 C.2     1  UNL1        0.2770
     11 N         138.9952  138.6589  163.2902 N.pl3   1  UNL1       -0.3133
     12 N         140.0991  139.8694  165.4023 N.2     1  UNL1       -0.2202
     13 C         139.2985  139.9936  168.2866 C.3     1  UNL1        0.1141
     14 C         139.6462  140.1990  168.1769 C.3     1  UNL1        0.1501
     15 O         139.2807  139.9831  168.2922 O.3     1  UNL1       -0.3532
     16 C         139.6462  140.1990  168.1769 C.3     1  UNL1        0.1501
     17 C         140.0820  140.7471  169.3201 C.3     1  UNL1        0.1398
     18 C         140.4806  141.3132  170.6508 C.3     1  UNL1        0.0438
     19 C         138.9741  140.2073  170.1755 C.3     1  UNL1        0.0438
     20 O         141.3282  141.4835  168.9270 O.3     1  UNL1       -0.4826
     21 H         138.2620  138.0962  162.9510 H       1  UNL1        0.1466
     22 H         139.6930  138.9816  162.6753 H       1  UNL1        0.1466
     23 C         143.9465  140.0928  161.1194 C.ar    1  UNL1        0.1578
     24 C         144.1052  141.3806  160.3668 C.ar    1  UNL1        0.1356
     25 N         143.8010  142.6855  161.0409 N.ar    1  UNL1       -0.2391
     26 C         143.3382  142.7027  162.4677 C.ar    1  UNL1        0.0991
     27 C         143.1795  141.4149  163.2202 C.ar    1  UNL1        0.0222
     28 C         143.4837  140.1099  162.5460 C.ar    1  UNL1        0.0401
     29 C         143.2313  137.6873  160.4467 C.3     1  UNL1        0.2525
     30 O         144.2507  138.7878  160.4452 O.3     1  UNL1       -0.4699
@<TRIPOS>BOND
     1    29    30    1
     2    30    23    1
     3    23    24   ar
     4    24    25   ar
     5    25    26   ar
     6    26    27   ar
     7    27     1    1
     8     1     2   ar
     9     2     3   ar
    10     3     4   ar
    11     4     5   ar
    12     5     6   ar
    13     5     7    1
    14     7     8    1
    15     8     9    1
    16     9    10    1
    17    10    11    1
    18    10    12    2
    19     7    13    1
    20    13    14    1
    21    14    15    1
    22    15    16    1
    23    13    17    1
    24    17    18    1
    25    17    19    1
    26    17    20    1
    27    27    28   ar
    28    28    23   ar
    29     6     1   ar
    30    12     7    1
    31    16    13    1
    32    20     4    1
    33    11    21    1
    34    11    22    1
@<TRIPOS>MOLECULE
*****
 30 34 0 0 0
SMALL
GASTEIGER

@<TRIPOS>ATOM
      1 C         142.0013  142.8131  164.2515 C.ar    1  UNL1        0.0015
      2 C         143.2791  143.1785  164.9472 C.ar    1  UNL1        0.0031
      3 C         143.5556  142.6616  166.3279 C.ar    1  UNL1        0.0366
      4 C         142.5545  141.7792  167.0129 C.ar    1  UNL1        0.1360
      5 C         141.2769  141.4137  166.3172 C.ar    1  UNL1        0.0357
      6 C         141.0003  141.9307  164.9365 C.ar    1  UNL1        0.0007
      7 C         140.2758  140.5313  167.0022 C.3     1  UNL1        0.1580
      8 C         139.1864  139.6629  167.5581 C.3     1  UNL1        0.2351
      9 O         138.1004  139.5650  166.5279 O.2     1  UNL1       -0.4478
     10 C         138.5187  140.3729  165.3353 C.2     1  UNL1        0.2770
     11 N         137.7309  140.5521  164.0716 N.pl3   1  UNL1       -0.3133
     12 N         139.8631  140.9702  165.6284 N.2     1  UNL1       -0.2202
     13 C         140.5524  140.0144  168.3828 C.3     1  UNL1        0.1141
     14 C         140.8317  140.2606  168.1917 C.3     1  UNL1        0.1501
     15 O         140.5381  140.0018  168.3926 O.3     1  UNL1       -0.3532
     16 C         140.8317  140.2606  168.1917 C.3     1  UNL1        0.1501
     17 C         141.8300  140.3798  169.0785 C.3     1  UNL1        0.1398
     18 C         142.8875  140.4469  170.1402 C.3     1  UNL1        0.0438
     19 C         141.1962  139.5207  170.1323 C.3     1  UNL1        0.0438
     20 O         142.8311  141.2622  168.3935 O.3     1  UNL1       -0.4826
     21 H         136.8532  140.1173  163.9728 H       1  UNL1        0.1466
     22 H         138.0916  141.1045  163.3408 H       1  UNL1        0.1466
     23 C         140.0989  143.6404  160.8683 C.ar    1  UNL1        0.1578
     24 C         141.1716  144.3639  160.1095 C.ar    1  UNL1        0.1356
     25 N         142.5208  144.5705  160.7313 N.ar    1  UNL1       -0.2391
     26 C         142.7975  144.0536  162.1121 C.ar    1  UNL1        0.0991
     27 C         141.7248  143.3300  162.8709 C.ar    1  UNL1        0.0222
     28 C         140.3754  143.1234  162.2490 C.ar    1  UNL1        0.0401
     29 C         138.4170  142.1247  159.5939 C.3     1  UNL1        0.2525
     30 O         138.7496  143.4338  160.2465 O.3     1  UNL1       -0.4699
@<TRIPOS>BOND
     1    29    30    1
     2    30    23    1
     3    23    24   ar
     4    24    25   ar
     5    25    26   ar
     6    26    27   ar
     7    27     1    1
     8     1     2   ar
     9     2     3   ar
    10     3     4   ar
    11     4     5   ar
    12     5     6   ar
    13     5     7    1
    14     7     8    1
    15     8     9    1
    16     9    10    1
    17    10    11    1
    18    10    12    2
    19     7    13    1
    20    13    14    1
    21    14    15    1
    22    15    16    1
    23    13    17    1
    24    17    18    1
    25    17    19    1
    26    17    20    1
    27    27    28   ar
    28    28    23   ar
    29     6     1   ar
    30    12     7    1
    31    16    13    1
    32    20     4    1
    33    11    21    1
    34    11    22    1
@<TRIPOS>MOLECULE
*****
 30 34 0 0 0
SMALL
GASTEIGER

@<TRIPOS>ATOM
      1 C         140.6716  143.2405  164.8007 C.ar    1  UNL1        0.0015
      2 C         139.9169  143.7235  166.0037 C.ar    1  UNL1        0.0031
      3 C         140.0519  143.0037  167.3127 C.ar    1  UNL1        0.0366
      4 C         140.9418  141.8008  167.4188 C.ar    1  UNL1        0.1360
      5 C         141.6966  141.3178  166.2159 C.ar    1  UNL1        0.0357
      6 C         141.5615  142.0377  164.9068 C.ar    1  UNL1        0.0007
      7 C         142.5864  140.1149  166.3220 C.3     1  UNL1        0.1580
      8 C         143.5088  138.9329  166.2759 C.3     1  UNL1        0.2351
      9 O         144.0438  138.8166  164.8793 O.2     1  UNL1       -0.4478
     10 C         143.4521  139.9266  164.0623 C.2     1  UNL1        0.2770
     11 N         143.7149  140.1884  162.6090 N.pl3   1  UNL1       -0.3133
     12 N         142.5514  140.7291  164.9539 N.2     1  UNL1       -0.2202
     13 C         142.7215  139.3951  167.6310 C.3     1  UNL1        0.1141
     14 C         142.4732  139.7307  167.6014 C.3     1  UNL1        0.1501
     15 O         142.7342  139.3779  167.6325 O.3     1  UNL1       -0.3532
     16 C         142.4732  139.7307  167.6014 C.3     1  UNL1        0.1501
     17 C         141.9667  139.8781  168.8339 C.3     1  UNL1        0.1398
     18 C         141.4599  139.9522  170.2437 C.3     1  UNL1        0.0438
     19 C         142.6806  138.7009  169.4297 C.3     1  UNL1        0.0438
     20 O         141.0769  141.0809  168.7278 O.3     1  UNL1       -0.4826
     21 H         144.3254  139.6024  162.1058 H       1  UNL1        0.1466
     22 H         143.2768  140.9461  162.1582 H       1  UNL1        0.1466
     23 C         141.4566  144.5234  161.1281 C.ar    1  UNL1        0.1578
     24 C         140.2664  145.4002  160.8736 C.ar    1  UNL1        0.1356
     25 N         139.2113  145.5571  161.9282 N.ar    1  UNL1       -0.2391
     26 C         139.3464  144.8372  163.2373 C.ar    1  UNL1        0.0991
     27 C         140.5366  143.9604  163.4917 C.ar    1  UNL1        0.0222
     28 C         141.5917  143.8035  162.4371 C.ar    1  UNL1        0.0401
     29 C         143.2325  143.0596  159.9224 C.3     1  UNL1        0.2525
     30 O         142.5117  144.3664  160.0735 O.3     1  UNL1       -0.4699
@<TRIPOS>BOND
     1    29    30    1
     2    30    23    1
     3    23    24   ar
     4    24    25   ar
     5    25    26   ar
     6    26    27   ar
     7    27     1    1
     8     1     2   ar
     9     2     3   ar
    10     3     4   ar
    11     4     5   ar
    12     5     6   ar
    13     5     7    1
    14     7     8    1
    15     8     9    1
    16     9    10    1
    17    10    11    1
    18    10    12    2
    19     7    13    1
    20    13    14    1
    21    14    15    1
    22    15    16    1
    23    13    17    1
    24    17    18    1
    25    17    19    1
    26    17    20    1
    27    27    28   ar
    28    28    23   ar
    29     6     1   ar
    30    12     7    1
    31    16    13    1
    32    20     4    1
    33    11    21    1
    34    11    22    1
@<TRIPOS>MOLECULE
*****
 30 34 0 0 0
SMALL
GASTEIGER

@<TRIPOS>ATOM
      1 C         139.8623  140.2021  167.4748 C.ar    1  UNL1        0.0015
      2 C         138.5838  139.4199  167.4152 C.ar    1  UNL1        0.0031
      3 C         138.0844  138.8980  166.1006 C.ar    1  UNL1        0.0366
      4 C         138.8635  139.1583  164.8455 C.ar    1  UNL1        0.1360
      5 C         140.1420  139.9404  164.9050 C.ar    1  UNL1        0.0357
      6 C         140.6415  140.4624  166.2197 C.ar    1  UNL1        0.0007
      7 C         140.9211  140.2007  163.6500 C.3     1  UNL1        0.1580
      8 C         141.8033  140.5383  162.4847 C.3     1  UNL1        0.2351
      9 O         142.9694  141.3289  162.9998 O.2     1  UNL1       -0.4478
     10 C         142.8079  141.4799  164.4834 C.2     1  UNL1        0.2770
     11 N         143.7473  142.2015  165.4035 N.pl3   1  UNL1       -0.3133
     12 N         141.5420  140.7827  164.8853 N.2     1  UNL1       -0.2202
     13 C         140.4217  139.6789  162.3354 C.3     1  UNL1        0.1141
     14 C         140.2043  139.6062  162.6855 C.3     1  UNL1        0.1501
     15 O         140.4328  139.6826  162.3175 O.3     1  UNL1       -0.3532
     16 C         140.2043  139.6062  162.6855 C.3     1  UNL1        0.1501
     17 C         139.1432  138.8967  162.2759 C.3     1  UNL1        0.1398
     18 C         137.9971  138.1101  161.7124 C.3     1  UNL1        0.0438
     19 C         139.5242  138.8838  160.8250 C.3     1  UNL1        0.0438
     20 O         138.3641  138.6364  163.5309 O.3     1  UNL1       -0.4826
     21 H         144.5570  142.6301  165.0432 H       1  UNL1        0.1466
     22 H         143.5542  142.2464  166.3679 H       1  UNL1        0.1466
     23 C         141.9955  142.2267  170.1395 C.ar    1  UNL1        0.1578
     24 C         141.3606  141.7677  171.4186 C.ar    1  UNL1        0.1356
     25 N         140.2263  140.7869  171.3832 N.ar    1  UNL1       -0.2391
     26 C         139.7268  140.2649  170.0685 C.ar    1  UNL1        0.0991
     27 C         140.3617  140.7239  168.7894 C.ar    1  UNL1        0.0222
     28 C         141.4961  141.7048  168.8249 C.ar    1  UNL1        0.0401
     29 C         144.5422  142.7267  170.0207 C.3     1  UNL1        0.2525
     30 O         143.1297  143.2076  170.1749 O.3     1  UNL1       -0.4699
@<TRIPOS>BOND
     1    29    30    1
     2    30    23    1
     3    23    24   ar
     4    24    25   ar
     5    25    26   ar
     6    26    27   ar
     7    27     1    1
     8     1     2   ar
     9     2     3   ar
    10     3     4   ar
    11     4     5   ar
    12     5     6   ar
    13     5     7    1
    14     7     8    1
    15     8     9    1
    16     9    10    1
    17    10    11    1
    18    10    12    2
    19     7    13    1
    20    13    14    1
    21    14    15    1
    22    15    16    1
    23    13    17    1
    24    17    18    1
    25    17    19    1
    26    17    20    1
    27    27    28   ar
    28    28    23   ar
    29     6     1   ar
    30    12     7    1
    31    16    13    1
    32    20     4    1
    33    11    21    1
    34    11    22    1
@<TRIPOS>MOLECULE
*****
 30 34 0 0 0
SMALL
GASTEIGER

@<TRIPOS>ATOM
      1 C         142.1407  141.4956  167.3032 C.ar    1  UNL1        0.0015
      2 C         142.9894  141.5938  166.0702 C.ar    1  UNL1        0.0031
      3 C         142.5998  140.8455  164.8300 C.ar    1  UNL1        0.0366
      4 C         141.3616  139.9988  164.8227 C.ar    1  UNL1        0.1360
      5 C         140.5129  139.9006  166.0556 C.ar    1  UNL1        0.0357
      6 C         140.9024  140.6490  167.2959 C.ar    1  UNL1        0.0007
      7 C         139.2747  139.0540  166.0483 C.3     1  UNL1        0.1580
      8 C         138.0155  138.2513  166.1903 C.3     1  UNL1        0.2351
      9 O         137.4987  138.4424  167.5855 O.2     1  UNL1       -0.4478
     10 C         138.4385  139.3633  168.3058 C.2     1  UNL1        0.2770
     11 N         138.3043  139.8251  169.7265 N.pl3   1  UNL1       -0.3133
     12 N         139.5361  139.7413  167.3558 N.2     1  UNL1       -0.2202
     13 C         138.8852  138.3056  164.8081 C.3     1  UNL1        0.1141
     14 C         139.2306  138.5418  164.8101 C.3     1  UNL1        0.1501
     15 O         138.8675  138.2935  164.8080 O.3     1  UNL1       -0.3532
     16 C         139.2306  138.5418  164.8101 C.3     1  UNL1        0.1501
     17 C         139.7338  138.4039  163.5752 C.3     1  UNL1        0.1398
     18 C         140.2099  138.1812  162.1703 C.3     1  UNL1        0.0438
     19 C         138.6609  137.4799  163.0799 C.3     1  UNL1        0.0438
     20 O         140.9721  139.2505  163.5825 O.3     1  UNL1       -0.4826
     21 H         137.5446  139.5203  170.2735 H       1  UNL1        0.1466
     22 H         138.9760  140.4329  170.1121 H       1  UNL1        0.1466
     23 C         144.3676  143.1406  170.1465 C.ar    1  UNL1        0.1578
     24 C         143.3093  143.7408  171.0239 C.ar    1  UNL1        0.1356
     25 N         141.8615  143.5926  170.6610 N.ar    1  UNL1       -0.2391
     26 C         141.4719  142.8442  169.4208 C.ar    1  UNL1        0.0991
     27 C         142.5302  142.2440  168.5434 C.ar    1  UNL1        0.0222
     28 C         143.9781  142.3923  168.9063 C.ar    1  UNL1        0.0401
     29 C         146.3049  144.5599  171.1380 C.3     1  UNL1        0.2525
     30 O         145.8155  143.2888  170.5094 O.3     1  UNL1       -0.4699
@<TRIPOS>BOND
     1    29    30    1
     2    30    23    1
     3    23    24   ar
     4    24    25   ar
     5    25    26   ar
     6    26    27   ar
     7    27     1    1
     8     1     2   ar
     9     2     3   ar
    10     3     4   ar
    11     4     5   ar
    12     5     6   ar
    13     5     7    1
    14     7     8    1
    15     8     9    1
    16     9    10    1
    17    10    11    1
    18    10    12    2
    19     7    13    1
    20    13    14    1
    21    14    15    1
    22    15    16    1
    23    13    17    1
    24    17    18    1
    25    17    19    1
    26    17    20    1
    27    27    28   ar
    28    28    23   ar
    29     6     1   ar
    30    12     7    1
    31    16    13    1
    32    20     4    1
    33    11    21    1
    34    11    22    1
@<TRIPOS>MOLECULE
*****
 30 34 0 0 0
SMALL
GASTEIGER

@<TRIPOS>ATOM
      1 C         142.0405  140.7683  166.7354 C.ar    1  UNL1        0.0015
      2 C         143.3593  141.2957  166.2530 C.ar    1  UNL1        0.0031
      3 C         143.8876  140.8811  164.9118 C.ar    1  UNL1        0.0366
      4 C         143.0971  139.9391  164.0529 C.ar    1  UNL1        0.1360
      5 C         141.7784  139.4116  164.5352 C.ar    1  UNL1        0.0357
      6 C         141.2500  139.8262  165.8765 C.ar    1  UNL1        0.0007
      7 C         140.9880  138.4695  163.6763 C.3     1  UNL1        0.1580
      8 C         140.0904  137.5258  162.9322 C.3     1  UNL1        0.2351
      9 O         138.8829  137.2661  163.7835 O.2     1  UNL1       -0.4478
     10 C         139.0342  138.0494  165.0537 C.2     1  UNL1        0.2770
     11 N         138.0563  138.0831  166.1906 N.pl3   1  UNL1       -0.3133
     12 N         140.3352  138.7932  164.9876 N.2     1  UNL1       -0.2202
     13 C         141.5162  138.0549  162.3351 C.3     1  UNL1        0.1141
     14 C         141.7368  138.3178  162.5747 C.3     1  UNL1        0.1501
     15 O         141.5050  138.0415  162.3228 O.3     1  UNL1       -0.3532
     16 C         141.7368  138.3178  162.5747 C.3     1  UNL1        0.1501
     17 C         142.8350  138.5824  161.8527 C.3     1  UNL1        0.1398
     18 C         144.0224  138.8101  160.9650 C.3     1  UNL1        0.0438
     19 C         142.4569  137.7194  160.6854 C.3     1  UNL1        0.0438
     20 O         143.6254  139.5245  162.7116 O.3     1  UNL1       -0.4826
     21 H         137.2252  137.5577  166.1407 H       1  UNL1        0.1466
     22 H         138.2456  138.6305  166.9866 H       1  UNL1        0.1466
     23 C         140.0250  140.7090  170.1537 C.ar    1  UNL1        0.1578
     24 C         140.4556  142.0120  170.7592 C.ar    1  UNL1        0.1356
     25 N         141.4144  142.9005  170.0235 N.ar    1  UNL1       -0.2391
     26 C         141.9428  142.4859  168.6822 C.ar    1  UNL1        0.0991
     27 C         141.5122  141.1829  168.0767 C.ar    1  UNL1        0.0222
     28 C         140.5533  140.2944  168.8124 C.ar    1  UNL1        0.0401
     29 C         137.6803  139.6083  170.3560 C.3     1  UNL1        0.2525
     30 O         139.0662  139.8206  170.8893 O.3     1  UNL1       -0.4699
@<TRIPOS>BOND
     1    29    30    1
     2    30    23    1
     3    23    24   ar
     4    24    25   ar
     5    25    26   ar
     6    26    27   ar
     7    27     1    1
     8     1     2   ar
     9     2     3   ar
    10     3     4   ar
    11     4     5   ar
    12     5     6   ar
    13     5     7    1
    14     7     8    1
    15     8     9    1
    16     9    10    1
    17    10    11    1
    18    10    12    2
    19     7    13    1
    20    13    14    1
    21    14    15    1
    22    15    16    1
    23    13    17    1
    24    17    18    1
    25    17    19    1
    26    17    20    1
    27    27    28   ar
    28    28    23   ar
    29     6     1   ar
    30    12     7    1
    31    16    13    1
    32    20     4    1
    33    11    21    1
    34    11    22    1
@<TRIPOS>MOLECULE
*****
 30 34 0 0 0
SMALL
GASTEIGER

@<TRIPOS>ATOM
      1 C         139.9274  139.0969  164.0862 C.ar    1  UNL1        0.0015
      2 C         138.6942  138.4265  164.6152 C.ar    1  UNL1        0.0031
      3 C         138.2945  138.6146  166.0487 C.ar    1  UNL1        0.0366
      4 C         139.1279  139.4733  166.9532 C.ar    1  UNL1        0.1360
      5 C         140.3611  140.1437  166.4243 C.ar    1  UNL1        0.0357
      6 C         140.7608  139.9556  164.9908 C.ar    1  UNL1        0.0007
      7 C         141.1945  141.0023  167.3288 C.3     1  UNL1        0.1580
      8 C         142.1220  141.8854  168.1099 C.3     1  UNL1        0.2351
      9 O         143.2175  142.3363  167.1897 O.2     1  UNL1       -0.4478
     10 C         142.9671  141.7319  165.8399 C.2     1  UNL1        0.2770
     11 N         143.8175  141.9191  164.6186 N.pl3   1  UNL1       -0.3133
     12 N         141.7168  140.9075  165.9258 N.2     1  UNL1       -0.2202
     13 C         140.7948  141.1905  168.7622 C.3     1  UNL1        0.1141
     14 C         140.5623  140.9509  168.5099 C.3     1  UNL1        0.1501
     15 O         140.8067  141.2027  168.7751 O.3     1  UNL1       -0.3532
     16 C         140.5623  140.9509  168.5099 C.3     1  UNL1        0.1501
     17 C         139.5617  140.5200  169.2911 C.3     1  UNL1        0.1398
     18 C         138.4886  140.0968  170.2499 C.3     1  UNL1        0.0438
     19 C         140.0224  141.2317  170.5287 C.3     1  UNL1        0.0438
     20 O         138.7282  139.6614  168.3866 O.3     1  UNL1       -0.4826
     21 H         144.6237  142.4824  164.6618 H       1  UNL1        0.1466
     22 H         143.5694  141.4786  163.7738 H       1  UNL1        0.1466
     23 C         142.1282  139.0322  160.7844 C.ar    1  UNL1        0.1578
     24 C         141.1266  138.5324  159.7859 C.ar    1  UNL1        0.1356
     25 N         139.7253  138.2208  160.2208 N.ar    1  UNL1       -0.2391
     26 C         139.3255  138.4090  161.6543 C.ar    1  UNL1        0.0991
     27 C         140.3271  138.9088  162.6528 C.ar    1  UNL1        0.0222
     28 C         141.7285  139.2204  162.2178 C.ar    1  UNL1        0.0401
     29 C         143.7686  140.1104  159.0824 C.3     1  UNL1        0.2525
     30 O         143.5295  139.3439  160.3495 O.3     1  UNL1       -0.4699
@<TRIPOS>BOND
     1    29    30    1
     2    30    23    1
     3    23    24   ar
     4    24    25   ar
     5    25    26   ar
     6    26    27   ar
     7    27     1    1
     8     1     2   ar
     9     2     3   ar
    10     3     4   ar
    11     4     5   ar
    12     5     6   ar
    13     5     7    1
    14     7     8    1
    15     8     9    1
    16     9    10    1
    17    10    11    1
    18    10    12    2
    19     7    13    1
    20    13    14    1
    21    14    15    1
    22    15    16    1
    23    13    17    1
    24    17    18    1
    25    17    19    1
    26    17    20    1
    27    27    28   ar
    28    28    23   ar
    29     6     1   ar
    30    12     7    1
    31    16    13    1
    32    20     4    1
    33    11    21    1
    34    11    22    1
