@<TRIPOS>MOLECULE
*****
 36 40 0 0 0
SMALL
GASTEIGER

@<TRIPOS>ATOM
      1 C         138.0055  139.8713  165.1545 C.3     1  UNL1        0.0768
      2 N         138.0427  141.1431  164.3602 N.3     1  UNL1       -0.2724
      3 C         137.4206  141.3595  163.0124 C.3     1  UNL1        0.0721
      4 C         137.7019  142.7720  162.5934 C.3     1  UNL1        0.0187
      5 C         138.4978  143.4287  163.6821 C.3     1  UNL1        0.0178
      6 C         138.7084  142.4220  164.7740 C.3     1  UNL1        0.0721
      7 C         138.9957  144.8436  163.6794 C.3     1  UNL1        0.0077
      8 C         140.2454  145.1974  162.9290 C.3     1  UNL1        0.0459
      9 C         141.5278  144.4784  163.2264 C.ar    1  UNL1        0.0603
     10 C         142.6298  145.1829  163.9608 C.ar    1  UNL1        0.0145
     11 C         143.9122  144.4640  164.2582 C.ar    1  UNL1       -0.0003
     12 C         144.0927  143.0404  163.8212 C.ar    1  UNL1        0.0092
     13 C         142.9907  142.3358  163.0868 C.ar    1  UNL1        0.1240
     14 N         141.7083  143.0549  162.7894 N.ar    1  UNL1       -0.2356
     15 N         143.1712  140.9123  162.6498 N.pl3   1  UNL1       -0.3184
     16 C         144.4536  140.1934  162.9472 C.3     1  UNL1        0.0885
     17 C         145.5555  140.8979  163.6816 C.3     1  UNL1        0.0260
     18 C         145.3751  142.3214  164.1186 C.3     1  UNL1        0.0309
     19 H         142.4479  140.4499  162.1678 H       1  UNL1        0.1482
     20 C         139.1026  138.8596  165.0024 C.3     1  UNL1        0.0439
     21 C         140.4012  139.0465  165.7296 C.ar    1  UNL1       -0.0196
     22 C         141.6625  138.4516  165.1771 C.ar    1  UNL1       -0.0041
     23 C         142.9611  138.6385  165.9043 C.ar    1  UNL1        0.0009
     24 C         142.9983  139.4203  167.1839 C.ar    1  UNL1        0.0145
     25 C         141.7370  140.0152  167.7364 C.ar    1  UNL1        0.0477
     26 C         140.4385  139.8283  167.0092 C.ar    1  UNL1        0.0103
     27 N         141.7743  140.7970  169.0160 N.pl3   1  UNL1       -0.3028
     28 C         141.0046  140.3172  170.2107 C.3     1  UNL1        0.1231
     29 C         141.0419  141.0990  171.4903 C.3     1  UNL1        0.1636
     30 O         141.8489  142.3606  171.5752 O.3     1  UNL1       -0.3501
     31 C         142.6185  142.8404  170.3804 C.3     1  UNL1        0.1636
     32 C         142.5812  142.0586  169.1009 C.3     1  UNL1        0.1231
     33 C         138.9010  137.6612  164.1231 C.3     1  UNL1        0.0474
     34 O         140.2844  137.6074  161.9246 O.co2   1  UNL1       -0.5492
     35 C         138.9762  137.8040  162.6318 C.2     1  UNL1        0.0507
     36 O         137.7433  138.1432  161.8478 O.co2   1  UNL1       -0.5492
@<TRIPOS>UNITY_ATOM_ATTR
34 1
charge -1
@<TRIPOS>BOND
     1    34    35   ar
     2    35    36   ar
     3    35    33    1
     4    20    33    1
     5    20     1    1
     6     1     2    1
     7     2     3    1
     8     3     4    1
     9     4     5    1
    10     5     7    1
    11     7     8    1
    12     8     9    1
    13     9    10   ar
    14    10    11   ar
    15    11    12   ar
    16    12    13   ar
    17    13    14   ar
    18    13    15    1
    19    15    16    1
    20    16    17    1
    21    17    18    1
    22     5     6    1
    23    20    21    1
    24    21    22   ar
    25    22    23   ar
    26    23    24   ar
    27    24    25   ar
    28    25    27    1
    29    27    28    1
    30    28    29    1
    31    29    30    1
    32    30    31    1
    33    31    32    1
    34    25    26   ar
    35     6     2    1
    36    26    21   ar
    37    14     9   ar
    38    32    27    1
    39    18    12    1
    40    15    19    1
@<TRIPOS>MOLECULE
*****
 36 40 0 0 0
SMALL
GASTEIGER

@<TRIPOS>ATOM
      1 C         140.2547  144.2065  164.6542 C.3     1  UNL1        0.0768
      2 N         141.6779  144.0678  164.2011 N.3     1  UNL1       -0.2724
      3 C         142.3513  144.8929  163.1448 C.3     1  UNL1        0.0721
      4 C         143.7672  144.4147  163.0157 C.3     1  UNL1        0.0187
      5 C         143.9688  143.2941  163.9922 C.3     1  UNL1        0.0178
      6 C         142.6776  143.0797  164.7248 C.3     1  UNL1        0.0721
      7 C         145.2387  142.5232  164.1996 C.3     1  UNL1        0.0077
      8 C         145.3331  141.0971  163.7446 C.3     1  UNL1        0.0459
      9 C         144.1617  140.1760  163.9160 C.ar    1  UNL1        0.0603
     10 C         144.0271  139.3585  165.1665 C.ar    1  UNL1        0.0145
     11 C         142.8557  138.4374  165.3379 C.ar    1  UNL1       -0.0003
     12 C         141.8188  138.3338  164.2589 C.ar    1  UNL1        0.0092
     13 C         141.9534  139.1513  163.0085 C.ar    1  UNL1        0.1240
     14 N         143.1249  140.0724  162.8370 N.ar    1  UNL1       -0.2356
     15 N         140.9166  139.0477  161.9295 N.pl3   1  UNL1       -0.3184
     16 C         139.7452  138.1266  162.1009 C.3     1  UNL1        0.0885
     17 C         139.6106  137.3091  163.3514 C.3     1  UNL1        0.0260
     18 C         140.6474  137.4127  164.4304 C.3     1  UNL1        0.0309
     19 H         141.0049  139.5842  161.1088 H       1  UNL1        0.1482
     20 C         139.2722  143.1046  164.3884 C.3     1  UNL1        0.0439
     21 C         139.1874  141.9340  165.3226 C.ar    1  UNL1       -0.0196
     22 C         138.3670  140.7348  164.9498 C.ar    1  UNL1       -0.0041
     23 C         138.2823  139.5643  165.8839 C.ar    1  UNL1        0.0009
     24 C         139.0179  139.5928  167.1908 C.ar    1  UNL1        0.0145
     25 C         139.8383  140.7920  167.5636 C.ar    1  UNL1        0.0477
     26 C         139.9230  141.9625  166.6295 C.ar    1  UNL1        0.0103
     27 N         140.5739  140.8206  168.8706 N.pl3   1  UNL1       -0.3028
     28 C         141.7523  139.9183  169.0877 C.3     1  UNL1        0.1231
     29 C         142.4879  139.9469  170.3947 C.3     1  UNL1        0.1636
     30 O         142.0451  140.8777  171.4844 O.3     1  UNL1       -0.3501
     31 C         140.8666  141.7799  171.2672 C.3     1  UNL1        0.1636
     32 C         140.1310  141.7513  169.9603 C.3     1  UNL1        0.1231
     33 C         138.3746  143.1733  163.1887 C.3     1  UNL1        0.0474
     34 O         138.1645  143.1981  160.5991 O.co2   1  UNL1       -0.5492
     35 C         138.8943  142.7743  161.8393 C.2     1  UNL1        0.0507
     36 O         140.1437  141.9515  161.7301 O.co2   1  UNL1       -0.5492
@<TRIPOS>UNITY_ATOM_ATTR
34 1
charge -1
@<TRIPOS>BOND
     1    34    35   ar
     2    35    36   ar
     3    35    33    1
     4    20    33    1
     5    20     1    1
     6     1     2    1
     7     2     3    1
     8     3     4    1
     9     4     5    1
    10     5     7    1
    11     7     8    1
    12     8     9    1
    13     9    10   ar
    14    10    11   ar
    15    11    12   ar
    16    12    13   ar
    17    13    14   ar
    18    13    15    1
    19    15    16    1
    20    16    17    1
    21    17    18    1
    22     5     6    1
    23    20    21    1
    24    21    22   ar
    25    22    23   ar
    26    23    24   ar
    27    24    25   ar
    28    25    27    1
    29    27    28    1
    30    28    29    1
    31    29    30    1
    32    30    31    1
    33    31    32    1
    34    25    26   ar
    35     6     2    1
    36    26    21   ar
    37    14     9   ar
    38    32    27    1
    39    18    12    1
    40    15    19    1
@<TRIPOS>MOLECULE
*****
 36 40 0 0 0
SMALL
GASTEIGER

@<TRIPOS>ATOM
      1 C         142.1144  140.9124  168.5528 C.3     1  UNL1        0.0768
      2 N         142.7649  140.1131  167.4629 N.3     1  UNL1       -0.2724
      3 C         143.1422  138.6632  167.5379 C.3     1  UNL1        0.0721
      4 C         143.7628  138.2773  166.2280 C.3     1  UNL1        0.0187
      5 C         143.7691  139.4887  165.3434 C.3     1  UNL1        0.0178
      6 C         143.1523  140.6232  166.1066 C.3     1  UNL1        0.0721
      7 C         144.2990  139.5540  163.9417 C.3     1  UNL1        0.0077
      8 C         143.7735  138.6149  162.8967 C.3     1  UNL1        0.0459
      9 C         142.3015  138.5549  162.6143 C.ar    1  UNL1        0.0603
     10 C         141.4188  137.6519  163.4238 C.ar    1  UNL1        0.0145
     11 C         139.9468  137.5919  163.1415 C.ar    1  UNL1       -0.0003
     12 C         139.3576  138.4348  162.0495 C.ar    1  UNL1        0.0092
     13 C         140.2404  139.3377  161.2399 C.ar    1  UNL1        0.1240
     14 N         141.7124  139.3978  161.5223 N.ar    1  UNL1       -0.2356
     15 N         139.6512  140.1806  160.1480 N.pl3   1  UNL1       -0.3184
     16 C         138.1793  140.1206  159.8656 C.3     1  UNL1        0.0885
     17 C         137.2965  139.2176  160.6752 C.3     1  UNL1        0.0260
     18 C         137.8857  138.3747  161.7671 C.3     1  UNL1        0.0309
     19 H         140.2306  140.7733  159.6166 H       1  UNL1        0.1482
     20 C         140.6188  140.9571  168.6596 C.3     1  UNL1        0.0439
     21 C         139.7727  140.7238  167.4431 C.ar    1  UNL1       -0.0196
     22 C         139.0027  139.4446  167.2992 C.ar    1  UNL1       -0.0041
     23 C         138.1566  139.2114  166.0827 C.ar    1  UNL1        0.0009
     24 C         138.0807  140.2572  165.0101 C.ar    1  UNL1        0.0145
     25 C         138.8507  141.5364  165.1540 C.ar    1  UNL1        0.0477
     26 C         139.6968  141.7697  166.3705 C.ar    1  UNL1        0.0103
     27 N         138.7748  142.5823  164.0815 N.pl3   1  UNL1       -0.3028
     28 C         138.1234  142.2639  162.7684 C.3     1  UNL1        0.1231
     29 C         138.0475  143.3098  161.6958 C.3     1  UNL1        0.1636
     30 O         138.6228  144.6740  161.9364 O.3     1  UNL1       -0.3501
     31 C         139.2741  144.9923  163.2496 C.3     1  UNL1        0.1636
     32 C         139.3501  143.9465  164.3221 C.3     1  UNL1        0.1231
     33 C         139.9694  141.2351  169.9828 C.3     1  UNL1        0.0474
     34 O         139.7444  143.7364  170.6488 O.co2   1  UNL1       -0.5492
     35 C         140.4178  142.4053  170.8072 C.2     1  UNL1        0.0507
     36 O         141.5395  142.2445  171.7900 O.co2   1  UNL1       -0.5492
@<TRIPOS>UNITY_ATOM_ATTR
34 1
charge -1
@<TRIPOS>BOND
     1    34    35   ar
     2    35    36   ar
     3    35    33    1
     4    20    33    1
     5    20     1    1
     6     1     2    1
     7     2     3    1
     8     3     4    1
     9     4     5    1
    10     5     7    1
    11     7     8    1
    12     8     9    1
    13     9    10   ar
    14    10    11   ar
    15    11    12   ar
    16    12    13   ar
    17    13    14   ar
    18    13    15    1
    19    15    16    1
    20    16    17    1
    21    17    18    1
    22     5     6    1
    23    20    21    1
    24    21    22   ar
    25    22    23   ar
    26    23    24   ar
    27    24    25   ar
    28    25    27    1
    29    27    28    1
    30    28    29    1
    31    29    30    1
    32    30    31    1
    33    31    32    1
    34    25    26   ar
    35     6     2    1
    36    26    21   ar
    37    14     9   ar
    38    32    27    1
    39    18    12    1
    40    15    19    1
@<TRIPOS>MOLECULE
*****
 36 40 0 0 0
SMALL
GASTEIGER

@<TRIPOS>ATOM
      1 C         142.7194  138.2322  164.5455 C.3     1  UNL1        0.0768
      2 N         141.3328  138.1025  163.9884 N.3     1  UNL1       -0.2724
      3 C         140.1165  137.6575  164.7452 C.3     1  UNL1        0.0721
      4 C         138.9510  137.6750  163.8011 C.3     1  UNL1        0.0187
      5 C         139.4469  138.1307  162.4609 C.3     1  UNL1        0.0178
      6 C         140.9189  138.3949  162.5766 C.3     1  UNL1        0.0721
      7 C         138.6166  138.2936  161.2223 C.3     1  UNL1        0.0077
      8 C         137.5593  139.3559  161.1626 C.3     1  UNL1        0.0459
      9 C         137.8740  140.7532  161.6082 C.ar    1  UNL1        0.0603
     10 C         137.4278  141.2280  162.9593 C.ar    1  UNL1        0.0145
     11 C         137.7425  142.6253  163.4049 C.ar    1  UNL1       -0.0003
     12 C         138.5034  143.5479  162.4993 C.ar    1  UNL1        0.0092
     13 C         138.9495  143.0731  161.1481 C.ar    1  UNL1        0.1240
     14 N         138.6348  141.6757  160.7026 N.ar    1  UNL1       -0.2356
     15 N         139.7103  143.9956  160.2426 N.pl3   1  UNL1       -0.3184
     16 C         140.0250  145.3929  160.6881 C.3     1  UNL1        0.0885
     17 C         139.5788  145.8676  162.0393 C.3     1  UNL1        0.0260
     18 C         138.8180  144.9451  162.9448 C.3     1  UNL1        0.0309
     19 H         140.0032  143.6840  159.3558 H       1  UNL1        0.1482
     20 C         143.3181  139.5910  164.7582 C.3     1  UNL1        0.0439
     21 C         142.4821  140.6981  165.3289 C.ar    1  UNL1       -0.0196
     22 C         141.8969  141.7399  164.4222 C.ar    1  UNL1       -0.0041
     23 C         141.0609  142.8468  164.9929 C.ar    1  UNL1        0.0009
     24 C         140.8101  142.9120  166.4704 C.ar    1  UNL1        0.0145
     25 C         141.3952  141.8701  167.3771 C.ar    1  UNL1        0.0477
     26 C         142.2312  140.7632  166.8064 C.ar    1  UNL1        0.0103
     27 N         141.1443  141.9352  168.8546 N.pl3   1  UNL1       -0.3028
     28 C         141.8831  141.0165  169.7819 C.3     1  UNL1        0.1231
     29 C         141.6322  141.0816  171.2593 C.3     1  UNL1        0.1636
     30 O         140.6426  142.0654  171.8094 O.3     1  UNL1       -0.3501
     31 C         139.9038  142.9842  170.8820 C.3     1  UNL1        0.1636
     32 C         140.1547  142.9191  169.4046 C.3     1  UNL1        0.1231
     33 C         144.7529  139.8428  164.4002 C.3     1  UNL1        0.0474
     34 O         144.4031  140.2731  161.8619 O.co2   1  UNL1       -0.5492
     35 C         145.0922  140.6036  163.1527 C.2     1  UNL1        0.0507
     36 O         146.1206  141.6947  163.1960 O.co2   1  UNL1       -0.5492
@<TRIPOS>UNITY_ATOM_ATTR
34 1
charge -1
@<TRIPOS>BOND
     1    34    35   ar
     2    35    36   ar
     3    35    33    1
     4    20    33    1
     5    20     1    1
     6     1     2    1
     7     2     3    1
     8     3     4    1
     9     4     5    1
    10     5     7    1
    11     7     8    1
    12     8     9    1
    13     9    10   ar
    14    10    11   ar
    15    11    12   ar
    16    12    13   ar
    17    13    14   ar
    18    13    15    1
    19    15    16    1
    20    16    17    1
    21    17    18    1
    22     5     6    1
    23    20    21    1
    24    21    22   ar
    25    22    23   ar
    26    23    24   ar
    27    24    25   ar
    28    25    27    1
    29    27    28    1
    30    28    29    1
    31    29    30    1
    32    30    31    1
    33    31    32    1
    34    25    26   ar
    35     6     2    1
    36    26    21   ar
    37    14     9   ar
    38    32    27    1
    39    18    12    1
    40    15    19    1
@<TRIPOS>MOLECULE
*****
 36 40 0 0 0
SMALL
GASTEIGER

@<TRIPOS>ATOM
      1 C         138.5221  138.8015  164.2115 C.3     1  UNL1        0.0768
      2 N         138.2046  140.2212  163.8460 N.3     1  UNL1       -0.2724
      3 C         137.7837  140.7100  162.4917 C.3     1  UNL1        0.0721
      4 C         137.5713  142.1923  162.5793 C.3     1  UNL1        0.0187
      5 C         137.8609  142.6196  163.9877 C.3     1  UNL1        0.0178
      6 C         138.2523  141.4014  164.7705 C.3     1  UNL1        0.0721
      7 C         137.7743  144.0194  164.5198 C.3     1  UNL1        0.0077
      8 C         139.0109  144.7139  165.0080 C.3     1  UNL1        0.0459
      9 C         140.3454  144.0388  164.8927 C.ar    1  UNL1        0.0603
     10 C         140.8574  143.1919  166.0199 C.ar    1  UNL1        0.0145
     11 C         142.1919  142.5168  165.9046 C.ar    1  UNL1       -0.0003
     12 C         143.0145  142.6885  164.6620 C.ar    1  UNL1        0.0092
     13 C         142.5025  143.5354  163.5348 C.ar    1  UNL1        0.1240
     14 N         141.1679  144.2106  163.6501 N.ar    1  UNL1       -0.2356
     15 N         143.3250  143.7072  162.2922 N.pl3   1  UNL1       -0.3184
     16 C         144.6595  143.0320  162.1769 C.3     1  UNL1        0.0885
     17 C         145.1714  142.1851  163.3042 C.3     1  UNL1        0.0260
     18 C         144.3489  142.0134  164.5467 C.3     1  UNL1        0.0309
     19 H         142.9890  144.2630  161.5524 H       1  UNL1        0.1482
     20 C         139.9196  138.2805  164.0520 C.3     1  UNL1        0.0439
     21 C         140.9498  138.5623  165.1054 C.ar    1  UNL1       -0.0196
     22 C         142.3820  138.1804  164.8749 C.ar    1  UNL1       -0.0041
     23 C         143.4121  138.4622  165.9282 C.ar    1  UNL1        0.0009
     24 C         143.0100  139.1258  167.2120 C.ar    1  UNL1        0.0145
     25 C         141.5779  139.5076  167.4425 C.ar    1  UNL1        0.0477
     26 C         140.5478  139.2258  166.3891 C.ar    1  UNL1        0.0103
     27 N         141.1759  140.1712  168.7262 N.pl3   1  UNL1       -0.3028
     28 C         142.1695  140.3116  169.8410 C.3     1  UNL1        0.1231
     29 C         141.7674  140.9752  171.1248 C.3     1  UNL1        0.1636
     30 O         140.3718  141.4983  171.2937 O.3     1  UNL1       -0.3501
     31 C         139.3782  141.3578  170.1788 C.3     1  UNL1        0.1636
     32 C         139.7802  140.6942  168.8951 C.3     1  UNL1        0.1231
     33 C         140.2870  137.4778  162.8393 C.3     1  UNL1        0.0474
     34 O         141.6924  138.8559  161.1435 O.co2   1  UNL1       -0.5492
     35 C         140.4185  138.1515  161.5056 C.2     1  UNL1        0.0507
     36 O         139.2761  138.1208  160.5339 O.co2   1  UNL1       -0.5492
@<TRIPOS>UNITY_ATOM_ATTR
34 1
charge -1
@<TRIPOS>BOND
     1    34    35   ar
     2    35    36   ar
     3    35    33    1
     4    20    33    1
     5    20     1    1
     6     1     2    1
     7     2     3    1
     8     3     4    1
     9     4     5    1
    10     5     7    1
    11     7     8    1
    12     8     9    1
    13     9    10   ar
    14    10    11   ar
    15    11    12   ar
    16    12    13   ar
    17    13    14   ar
    18    13    15    1
    19    15    16    1
    20    16    17    1
    21    17    18    1
    22     5     6    1
    23    20    21    1
    24    21    22   ar
    25    22    23   ar
    26    23    24   ar
    27    24    25   ar
    28    25    27    1
    29    27    28    1
    30    28    29    1
    31    29    30    1
    32    30    31    1
    33    31    32    1
    34    25    26   ar
    35     6     2    1
    36    26    21   ar
    37    14     9   ar
    38    32    27    1
    39    18    12    1
    40    15    19    1
@<TRIPOS>MOLECULE
*****
 36 40 0 0 0
SMALL
GASTEIGER

@<TRIPOS>ATOM
      1 C         143.7526  143.7008  164.7823 C.3     1  UNL1        0.0768
      2 N         142.4419  144.1538  164.2106 N.3     1  UNL1       -0.2724
      3 C         142.2616  145.0768  163.0420 C.3     1  UNL1        0.0721
      4 C         140.7897  145.2569  162.8162 C.3     1  UNL1        0.0187
      5 C         140.0602  144.4452  163.8453 C.3     1  UNL1        0.0178
      6 C         141.0814  143.7634  164.7071 C.3     1  UNL1        0.0721
      7 C         138.5711  144.3346  163.9876 C.3     1  UNL1        0.0077
      8 C         137.8628  143.0980  163.5198 C.3     1  UNL1        0.0459
      9 C         138.4518  141.7463  163.7961 C.ar    1  UNL1        0.0603
     10 C         138.1581  141.0511  165.0924 C.ar    1  UNL1        0.0145
     11 C         138.7470  139.6995  165.3688 C.ar    1  UNL1       -0.0003
     12 C         139.6297  139.0431  164.3489 C.ar    1  UNL1        0.0092
     13 C         139.9234  139.7384  163.0526 C.ar    1  UNL1        0.1240
     14 N         139.3344  141.0900  162.7762 N.ar    1  UNL1       -0.2356
     15 N         140.8060  139.0821  162.0327 N.pl3   1  UNL1       -0.3184
     16 C         141.3949  137.7305  162.3091 C.3     1  UNL1        0.0885
     17 C         141.1012  137.0353  163.6053 C.3     1  UNL1        0.0260
     18 C         140.2186  137.6916  164.6252 C.3     1  UNL1        0.0309
     19 H         140.9987  139.5384  161.1819 H       1  UNL1        0.1482
     20 C         144.2546  142.3154  164.5014 C.3     1  UNL1        0.0439
     21 C         143.7854  141.1633  165.3397 C.ar    1  UNL1       -0.0196
     22 C         144.0976  139.7566  164.9230 C.ar    1  UNL1       -0.0041
     23 C         143.6284  138.6045  165.7613 C.ar    1  UNL1        0.0009
     24 C         142.8471  138.8592  167.0161 C.ar    1  UNL1        0.0145
     25 C         142.5349  140.2660  167.4328 C.ar    1  UNL1        0.0477
     26 C         143.0041  141.4180  166.5945 C.ar    1  UNL1        0.0103
     27 N         141.7535  140.5207  168.6876 N.pl3   1  UNL1       -0.3028
     28 C         142.4455  141.0550  169.9064 C.3     1  UNL1        0.1231
     29 C         141.6641  141.3097  171.1613 C.3     1  UNL1        0.1636
     30 O         140.1909  141.0301  171.1972 O.3     1  UNL1       -0.3501
     31 C         139.4990  140.4957  169.9783 C.3     1  UNL1        0.1636
     32 C         140.2803  140.2411  168.7236 C.3     1  UNL1        0.1231
     33 C         145.2258  142.0822  163.3823 C.3     1  UNL1        0.0474
     34 O         144.5062  143.0452  161.0790 O.co2   1  UNL1       -0.5492
     35 C         144.7231  141.8696  161.9851 C.2     1  UNL1        0.0507
     36 O         144.4374  140.4813  161.4940 O.co2   1  UNL1       -0.5492
@<TRIPOS>UNITY_ATOM_ATTR
34 1
charge -1
@<TRIPOS>BOND
     1    34    35   ar
     2    35    36   ar
     3    35    33    1
     4    20    33    1
     5    20     1    1
     6     1     2    1
     7     2     3    1
     8     3     4    1
     9     4     5    1
    10     5     7    1
    11     7     8    1
    12     8     9    1
    13     9    10   ar
    14    10    11   ar
    15    11    12   ar
    16    12    13   ar
    17    13    14   ar
    18    13    15    1
    19    15    16    1
    20    16    17    1
    21    17    18    1
    22     5     6    1
    23    20    21    1
    24    21    22   ar
    25    22    23   ar
    26    23    24   ar
    27    24    25   ar
    28    25    27    1
    29    27    28    1
    30    28    29    1
    31    29    30    1
    32    30    31    1
    33    31    32    1
    34    25    26   ar
    35     6     2    1
    36    26    21   ar
    37    14     9   ar
    38    32    27    1
    39    18    12    1
    40    15    19    1
@<TRIPOS>MOLECULE
*****
 36 40 0 0 0
SMALL
GASTEIGER

@<TRIPOS>ATOM
      1 C         137.8214  142.3131  164.6392 C.3     1  UNL1        0.0768
      2 N         138.1969  140.8609  164.6218 N.3     1  UNL1       -0.2724
      3 C         138.1020  139.9118  165.7795 C.3     1  UNL1        0.0721
      4 C         138.5797  138.5672  165.3169 C.3     1  UNL1        0.0187
      5 C         138.9697  138.6853  163.8734 C.3     1  UNL1        0.0178
      6 C         138.7331  140.1029  163.4438 C.3     1  UNL1        0.0721
      7 C         139.5028  137.5800  163.0109 C.3     1  UNL1        0.0077
      8 C         140.8996  137.0742  163.2181 C.3     1  UNL1        0.0459
      9 C         142.0184  138.0419  163.4674 C.ar    1  UNL1        0.0603
     10 C         142.7296  138.0418  164.7881 C.ar    1  UNL1        0.0145
     11 C         143.8483  139.0094  165.0375 C.ar    1  UNL1       -0.0003
     12 C         144.2559  139.9771  163.9662 C.ar    1  UNL1        0.0092
     13 C         143.5446  139.9771  162.6455 C.ar    1  UNL1        0.1240
     14 N         142.4259  139.0094  162.3962 N.ar    1  UNL1       -0.2356
     15 N         143.9521  140.9447  161.5742 N.pl3   1  UNL1       -0.3184
     16 C         145.0709  141.9122  161.8236 C.3     1  UNL1        0.0885
     17 C         145.7821  141.9122  163.1443 C.3     1  UNL1        0.0260
     18 C         145.3746  140.9446  164.2156 C.3     1  UNL1        0.0309
     19 H         143.4853  140.9447  160.7074 H       1  UNL1        0.1482
     20 C         138.8871  143.3645  164.5464 C.3     1  UNL1        0.0439
     21 C         140.2416  143.1140  165.1406 C.ar    1  UNL1       -0.0196
     22 C         141.4771  143.4456  164.3575 C.ar    1  UNL1       -0.0041
     23 C         142.8314  143.1951  164.9517 C.ar    1  UNL1        0.0009
     24 C         142.9502  142.6130  166.3290 C.ar    1  UNL1        0.0145
     25 C         141.7146  142.2814  167.1121 C.ar    1  UNL1        0.0477
     26 C         140.3603  142.5319  166.5179 C.ar    1  UNL1        0.0103
     27 N         141.8333  141.6993  168.4895 N.pl3   1  UNL1       -0.3028
     28 C         141.9176  142.6053  169.6819 C.3     1  UNL1        0.1231
     29 C         142.0363  142.0232  171.0592 C.3     1  UNL1        0.1636
     30 O         142.0708  140.5350  171.2441 O.3     1  UNL1       -0.3501
     31 C         141.9866  139.6290  170.0516 C.3     1  UNL1        0.1636
     32 C         141.8678  140.2111  168.6744 C.3     1  UNL1        0.1231
     33 C         138.5986  144.6664  163.8595 C.3     1  UNL1        0.0474
     34 O         138.1733  143.5920  161.5325 O.co2   1  UNL1       -0.5492
     35 C         138.6420  144.7503  162.3625 C.2     1  UNL1        0.0507
     36 O         139.1541  145.9923  161.6955 O.co2   1  UNL1       -0.5492
@<TRIPOS>UNITY_ATOM_ATTR
34 1
charge -1
@<TRIPOS>BOND
     1    34    35   ar
     2    35    36   ar
     3    35    33    1
     4    20    33    1
     5    20     1    1
     6     1     2    1
     7     2     3    1
     8     3     4    1
     9     4     5    1
    10     5     7    1
    11     7     8    1
    12     8     9    1
    13     9    10   ar
    14    10    11   ar
    15    11    12   ar
    16    12    13   ar
    17    13    14   ar
    18    13    15    1
    19    15    16    1
    20    16    17    1
    21    17    18    1
    22     5     6    1
    23    20    21    1
    24    21    22   ar
    25    22    23   ar
    26    23    24   ar
    27    24    25   ar
    28    25    27    1
    29    27    28    1
    30    28    29    1
    31    29    30    1
    32    30    31    1
    33    31    32    1
    34    25    26   ar
    35     6     2    1
    36    26    21   ar
    37    14     9   ar
    38    32    27    1
    39    18    12    1
    40    15    19    1
@<TRIPOS>MOLECULE
*****
 36 40 0 0 0
SMALL
GASTEIGER

@<TRIPOS>ATOM
      1 C         143.4989  138.7825  164.9525 C.3     1  UNL1        0.0768
      2 N         144.0306  140.1341  164.5778 N.3     1  UNL1       -0.2724
      3 C         145.2309  140.4024  163.7190 C.3     1  UNL1        0.0721
      4 C         145.3974  141.8888  163.6065 C.3     1  UNL1        0.0187
      5 C         144.3001  142.5393  164.3957 C.3     1  UNL1        0.0178
      6 C         143.4554  141.4548  164.9960 C.3     1  UNL1        0.0721
      7 C         144.0853  144.0150  164.5565 C.3     1  UNL1        0.0077
      8 C         142.8026  144.6408  164.0951 C.3     1  UNL1        0.0459
      9 C         141.5600  143.8081  163.9819 C.ar    1  UNL1        0.0603
     10 C         140.6734  143.6178  165.1767 C.ar    1  UNL1        0.0145
     11 C         139.4309  142.7851  165.0636 C.ar    1  UNL1       -0.0003
     12 C         139.0749  142.1428  163.7556 C.ar    1  UNL1        0.0092
     13 C         139.9616  142.3331  162.5608 C.ar    1  UNL1        0.1240
     14 N         141.2041  143.1658  162.6740 N.ar    1  UNL1       -0.2356
     15 N         139.6057  141.6908  161.2528 N.pl3   1  UNL1       -0.3184
     16 C         138.3632  140.8582  161.1397 C.3     1  UNL1        0.0885
     17 C         137.4766  140.6678  162.3346 C.3     1  UNL1        0.0260
     18 C         137.8324  141.3101  163.6425 C.3     1  UNL1        0.0309
     19 H         140.1877  141.8158  160.4686 H       1  UNL1        0.1482
     20 C         142.0916  138.4049  164.5962 C.3     1  UNL1        0.0439
     21 C         140.9598  138.7886  165.5028 C.ar    1  UNL1       -0.0196
     22 C         139.5676  138.3155  165.2060 C.ar    1  UNL1       -0.0041
     23 C         138.4359  138.6992  166.1126 C.ar    1  UNL1        0.0009
     24 C         138.6963  139.5559  167.3160 C.ar    1  UNL1        0.0145
     25 C         140.0884  140.0290  167.6128 C.ar    1  UNL1        0.0477
     26 C         141.2201  139.6454  166.7062 C.ar    1  UNL1        0.0103
     27 N         140.3488  140.8858  168.8162 N.pl3   1  UNL1       -0.3028
     28 C         140.3689  142.3797  168.6830 C.3     1  UNL1        0.1231
     29 C         140.6293  143.2365  169.8865 C.3     1  UNL1        0.1636
     30 O         140.8695  142.5993  171.2230 O.3     1  UNL1       -0.3501
     31 C         140.8493  141.1054  171.3561 C.3     1  UNL1        0.1636
     32 C         140.5890  140.2487  170.1527 C.3     1  UNL1        0.1231
     33 C         141.8161  137.6437  163.3334 C.3     1  UNL1        0.0474
     34 O         140.1171  137.7937  161.3735 O.co2   1  UNL1       -0.5492
     35 C         141.2843  138.3594  162.1272 C.2     1  UNL1        0.0507
     36 O         141.9195  139.6406  161.6746 O.co2   1  UNL1       -0.5492
@<TRIPOS>UNITY_ATOM_ATTR
34 1
charge -1
@<TRIPOS>BOND
     1    34    35   ar
     2    35    36   ar
     3    35    33    1
     4    20    33    1
     5    20     1    1
     6     1     2    1
     7     2     3    1
     8     3     4    1
     9     4     5    1
    10     5     7    1
    11     7     8    1
    12     8     9    1
    13     9    10   ar
    14    10    11   ar
    15    11    12   ar
    16    12    13   ar
    17    13    14   ar
    18    13    15    1
    19    15    16    1
    20    16    17    1
    21    17    18    1
    22     5     6    1
    23    20    21    1
    24    21    22   ar
    25    22    23   ar
    26    23    24   ar
    27    24    25   ar
    28    25    27    1
    29    27    28    1
    30    28    29    1
    31    29    30    1
    32    30    31    1
    33    31    32    1
    34    25    26   ar
    35     6     2    1
    36    26    21   ar
    37    14     9   ar
    38    32    27    1
    39    18    12    1
    40    15    19    1
@<TRIPOS>MOLECULE
*****
 36 40 0 0 0
SMALL
GASTEIGER

@<TRIPOS>ATOM
      1 C         138.1066  139.2134  162.7495 C.3     1  UNL1        0.0768
      2 N         137.9974  140.7076  162.8213 N.3     1  UNL1       -0.2724
      3 C         137.9793  141.6476  161.6525 C.3     1  UNL1        0.0721
      4 C         137.8578  143.0452  162.1834 C.3     1  UNL1        0.0187
      5 C         137.8008  142.9691  163.6804 C.3     1  UNL1        0.0178
      6 C         137.8871  141.5244  164.0746 C.3     1  UNL1        0.0721
      7 C         137.6790  144.1332  164.6184 C.3     1  UNL1        0.0077
      8 C         138.8890  144.6405  165.3453 C.3     1  UNL1        0.0459
      9 C         140.2082  143.9454  165.1819 C.ar    1  UNL1        0.0603
     10 C         140.6356  142.9048  166.1742 C.ar    1  UNL1        0.0145
     11 C         141.9547  142.2098  166.0109 C.ar    1  UNL1       -0.0003
     12 C         142.8466  142.5554  164.8553 C.ar    1  UNL1        0.0092
     13 C         142.4193  143.5960  163.8631 C.ar    1  UNL1        0.1240
     14 N         141.1001  144.2910  164.0265 N.ar    1  UNL1       -0.2356
     15 N         143.3111  143.9416  162.7077 N.pl3   1  UNL1       -0.3184
     16 C         144.6303  143.2465  162.5444 C.3     1  UNL1        0.0885
     17 C         145.0576  142.2059  163.5366 C.3     1  UNL1        0.0260
     18 C         144.1658  141.8603  164.6921 C.3     1  UNL1        0.0309
     19 H         143.0306  144.6246  162.0564 H       1  UNL1        0.1482
     20 C         139.2175  138.5071  163.4686 C.3     1  UNL1        0.0439
     21 C         140.6161  138.5646  162.9292 C.ar    1  UNL1       -0.0196
     22 C         141.7848  138.5110  163.8678 C.ar    1  UNL1       -0.0041
     23 C         143.1832  138.5685  163.3283 C.ar    1  UNL1        0.0009
     24 C         143.4129  138.6796  161.8502 C.ar    1  UNL1        0.0145
     25 C         142.2442  138.7332  160.9115 C.ar    1  UNL1        0.0477
     26 C         140.8457  138.6757  161.4510 C.ar    1  UNL1        0.0103
     27 N         142.4738  138.8443  159.4334 N.pl3   1  UNL1       -0.3028
     28 C         142.6684  137.6061  158.6095 C.3     1  UNL1        0.1231
     29 C         142.8981  137.7172  157.1313 C.3     1  UNL1        0.1636
     30 O         142.9332  139.0665  156.4771 O.3     1  UNL1       -0.3501
     31 C         142.7386  140.3048  157.3011 C.3     1  UNL1        0.1636
     32 C         142.5089  140.1937  158.7791 C.3     1  UNL1        0.1231
     33 C         138.9299  137.7434  164.7272 C.3     1  UNL1        0.0474
     34 O         137.3493  138.2629  166.7227 O.co2   1  UNL1       -0.5492
     35 C         138.6477  138.4795  166.0033 C.2     1  UNL1        0.0507
     36 O         139.6637  139.4323  166.5600 O.co2   1  UNL1       -0.5492
@<TRIPOS>UNITY_ATOM_ATTR
34 1
charge -1
@<TRIPOS>BOND
     1    34    35   ar
     2    35    36   ar
     3    35    33    1
     4    20    33    1
     5    20     1    1
     6     1     2    1
     7     2     3    1
     8     3     4    1
     9     4     5    1
    10     5     7    1
    11     7     8    1
    12     8     9    1
    13     9    10   ar
    14    10    11   ar
    15    11    12   ar
    16    12    13   ar
    17    13    14   ar
    18    13    15    1
    19    15    16    1
    20    16    17    1
    21    17    18    1
    22     5     6    1
    23    20    21    1
    24    21    22   ar
    25    22    23   ar
    26    23    24   ar
    27    24    25   ar
    28    25    27    1
    29    27    28    1
    30    28    29    1
    31    29    30    1
    32    30    31    1
    33    31    32    1
    34    25    26   ar
    35     6     2    1
    36    26    21   ar
    37    14     9   ar
    38    32    27    1
    39    18    12    1
    40    15    19    1
