@<TRIPOS>MOLECULE
*****
 37 41 0 0 0
SMALL
GASTEIGER

@<TRIPOS>ATOM
      1 C         141.6620  142.1022  160.4854 C.3     1  UNL1        0.0900
      2 C         141.6379  142.1779  158.9875 C.3     1  UNL1        0.0106
      3 C         140.4621  141.6389  158.2281 C.3     1  UNL1        0.0005
      4 C         139.3103  141.0240  158.9666 C.3     1  UNL1        0.0000
      5 C         137.9910  140.3548  159.2147 C.3     1  UNL1        0.0000
      6 C         138.8281  140.8674  157.5549 C.3     1  UNL1        0.0000
      7 C         139.3343  140.9483  160.4644 C.3     1  UNL1        0.0010
      8 C         140.5101  141.4873  161.2239 C.3     1  UNL1        0.0173
      9 C         140.5342  141.4116  162.7218 C.3     1  UNL1        0.0627
     10 C         139.3824  140.7968  163.4603 C.2     1  UNL1        0.1721
     11 O         138.2065  140.2577  162.7008 O.2     1  UNL1       -0.2914
     12 C         139.4064  140.7210  164.9581 C.2     1  UNL1        0.0292
     13 C         140.5823  141.2601  165.7176 C.2     1  UNL1       -0.0388
     14 C         140.6064  141.1843  167.2155 C.3     1  UNL1        0.0349
     15 C         139.4305  140.6453  166.4561 C.3     1  UNL1        0.0085
     16 C         139.4545  140.5695  167.9539 C.2     1  UNL1       -0.0098
     17 C         139.4786  140.4938  169.4518 C.2     1  UNL1        0.0990
     18 C         140.6545  141.0329  170.2113 C.2     1  UNL1        0.1815
     19 O         140.6785  140.9571  171.7091 O.2     1  UNL1       -0.2907
     20 C         141.8063  141.6477  169.4728 C.3     1  UNL1        0.0568
     21 C         143.1255  142.3169  169.2246 C.3     1  UNL1        0.0077
     22 C         142.2885  141.8043  170.8845 C.3     1  UNL1        0.0077
     23 C         141.7822  141.7234  167.9749 C.3     1  UNL1        0.0141
     24 C         142.9340  142.3382  167.2364 C.3     1  UNL1        0.0014
     25 C         142.9100  142.4140  165.7386 C.3     1  UNL1        0.0038
     26 C         141.7341  141.8749  164.9792 C.3     1  UNL1        0.0159
     27 C         140.5582  141.3358  164.2197 C.3     1  UNL1        0.0041
     28 C         141.7101  141.9507  163.4812 C.3     1  UNL1        0.0101
     29 C         142.8860  142.4898  164.2407 C.3     1  UNL1        0.0007
     30 C         142.8619  142.5655  162.7428 C.3     1  UNL1        0.0013
     31 C         142.8378  142.6413  161.2449 C.3     1  UNL1        0.0106
     32 C         142.8138  142.7170  159.7469 C.2     1  UNL1        0.3160
     33 O         142.8022  144.1820  159.4251 O.2     1  UNL1       -0.2501
     34 C         144.9658  142.3869  158.3292 C.3     1  UNL1        0.2556
     35 O         143.9772  141.8667  159.3303 O.3     1  UNL1       -0.4444
     36 C         138.3268  139.8789  170.1902 C.1     1  UNL1        0.1030
     37 N         137.1749  139.2641  170.9287 N.1     1  UNL1       -0.1907
@<TRIPOS>BOND
     1    34    35    1
     2    35    32    1
     3    32    33    2
     4     1    32    1
     5     1     2    1
     6     2     3    1
     7     3     4    1
     8     4     5    1
     9     4     6    1
    10     4     7    1
    11     8     7    1
    12     8     9    1
    13     9    10    1
    14    10    11    2
    15    10    12    1
    16    12    13    2
    17    13    14    1
    18    14    15    1
    19    14    16    1
    20    16    17    2
    21    17    36    1
    22    36    37    3
    23    17    18    1
    24    18    19    2
    25    18    20    1
    26    20    21    1
    27    20    22    1
    28    20    23    1
    29    23    24    1
    30    24    25    1
    31    25    26    1
    32    26    27    1
    33    26    28    1
    34    28    29    1
    35    28    30    1
    36    30    31    1
    37     8     1    1
    38    28     9    1
    39    31     1    1
    40    26    13    1
    41    23    14    1
@<TRIPOS>MOLECULE
*****
 37 41 0 0 0
SMALL
GASTEIGER

@<TRIPOS>ATOM
      1 C         140.7822  142.0977  160.4599 C.3     1  UNL1        0.0900
      2 C         140.7282  142.1444  158.9616 C.3     1  UNL1        0.0106
      3 C         141.3179  141.0259  158.1547 C.3     1  UNL1        0.0005
      4 C         141.9616  139.8607  158.8460 C.3     1  UNL1        0.0000
      5 C         142.6723  138.5541  159.0403 C.3     1  UNL1        0.0000
      6 C         142.1544  139.4537  157.4152 C.3     1  UNL1        0.0000
      7 C         142.0157  139.8140  160.3443 C.3     1  UNL1        0.0010
      8 C         141.4260  140.9325  161.1512 C.3     1  UNL1        0.0173
      9 C         141.4800  140.8858  162.6496 C.3     1  UNL1        0.0627
     10 C         142.1238  139.7206  163.3409 C.2     1  UNL1        0.1721
     11 O         142.7135  138.6021  162.5338 O.2     1  UNL1       -0.2914
     12 C         142.1779  139.6739  164.8391 C.2     1  UNL1        0.0292
     13 C         141.5881  140.7924  165.6462 C.2     1  UNL1       -0.0388
     14 C         141.6422  140.7457  167.1445 C.3     1  UNL1        0.0349
     15 C         142.2319  139.6272  166.3375 C.3     1  UNL1        0.0085
     16 C         142.2860  139.5805  167.8358 C.2     1  UNL1       -0.0098
     17 C         142.3400  139.5338  169.3340 C.2     1  UNL1        0.0990
     18 C         141.7503  140.6523  170.1411 C.2     1  UNL1        0.1815
     19 O         141.8044  140.6056  171.6393 O.2     1  UNL1       -0.2907
     20 C         141.1065  141.8175  169.4498 C.3     1  UNL1        0.0568
     21 C         140.3959  143.1240  169.2553 C.3     1  UNL1        0.0077
     22 C         140.9138  142.2245  170.8805 C.3     1  UNL1        0.0077
     23 C         141.0525  141.8642  167.9514 C.3     1  UNL1        0.0141
     24 C         140.4087  143.0293  167.2601 C.3     1  UNL1        0.0014
     25 C         140.3547  143.0761  165.7618 C.3     1  UNL1        0.0038
     26 C         140.9444  141.9576  164.9549 C.3     1  UNL1        0.0159
     27 C         141.5341  140.8391  164.1478 C.3     1  UNL1        0.0041
     28 C         140.8903  142.0043  163.4565 C.3     1  UNL1        0.0101
     29 C         140.3006  143.1228  164.2636 C.3     1  UNL1        0.0007
     30 C         140.2466  143.1695  162.7652 C.3     1  UNL1        0.0013
     31 C         140.1925  143.2162  161.2670 C.3     1  UNL1        0.0106
     32 C         140.1385  143.2628  159.7686 C.2     1  UNL1        0.3160
     33 O         138.6750  143.2258  159.4416 O.2     1  UNL1       -0.2501
     34 C         140.3725  145.5360  158.5323 C.3     1  UNL1        0.2556
     35 O         140.9582  144.4651  159.4042 O.3     1  UNL1       -0.4444
     36 C         142.9838  138.3686  170.0253 C.1     1  UNL1        0.1030
     37 N         143.6275  137.2034  170.7166 N.1     1  UNL1       -0.1907
@<TRIPOS>BOND
     1    34    35    1
     2    35    32    1
     3    32    33    2
     4     1    32    1
     5     1     2    1
     6     2     3    1
     7     3     4    1
     8     4     5    1
     9     4     6    1
    10     4     7    1
    11     8     7    1
    12     8     9    1
    13     9    10    1
    14    10    11    2
    15    10    12    1
    16    12    13    2
    17    13    14    1
    18    14    15    1
    19    14    16    1
    20    16    17    2
    21    17    36    1
    22    36    37    3
    23    17    18    1
    24    18    19    2
    25    18    20    1
    26    20    21    1
    27    20    22    1
    28    20    23    1
    29    23    24    1
    30    24    25    1
    31    25    26    1
    32    26    27    1
    33    26    28    1
    34    28    29    1
    35    28    30    1
    36    30    31    1
    37     8     1    1
    38    28     9    1
    39    31     1    1
    40    26    13    1
    41    23    14    1
@<TRIPOS>MOLECULE
*****
 37 41 0 0 0
SMALL
GASTEIGER

@<TRIPOS>ATOM
      1 C         142.0644  140.6626  160.1346 C.3     1  UNL1        0.0900
      2 C         142.0561  140.6812  158.6348 C.3     1  UNL1        0.0106
      3 C         141.4346  141.8334  157.9026 C.3     1  UNL1        0.0005
      4 C         140.8214  142.9669  158.6701 C.3     1  UNL1        0.0000
      5 C         140.1208  144.2632  158.9506 C.3     1  UNL1        0.0000
      6 C         140.5699  143.4357  157.2677 C.3     1  UNL1        0.0000
      7 C         140.8297  142.9482  160.1700 C.3     1  UNL1        0.0010
      8 C         141.4511  141.7960  160.9022 C.3     1  UNL1        0.0173
      9 C         141.4594  141.7773  162.4021 C.3     1  UNL1        0.0627
     10 C         140.8462  142.9108  163.1697 C.2     1  UNL1        0.1721
     11 O         140.2247  144.0630  162.4374 O.2     1  UNL1       -0.2914
     12 C         140.8544  142.8921  164.6695 C.2     1  UNL1        0.0292
     13 C         141.4759  141.7399  165.4019 C.2     1  UNL1       -0.0388
     14 C         141.4841  141.7212  166.9017 C.3     1  UNL1        0.0349
     15 C         140.8627  142.8734  166.1694 C.3     1  UNL1        0.0085
     16 C         140.8709  142.8547  167.6693 C.2     1  UNL1       -0.0098
     17 C         140.8791  142.8360  169.1691 C.2     1  UNL1        0.0990
     18 C         141.5006  141.6838  169.9014 C.2     1  UNL1        0.1815
     19 O         141.5089  141.6652  171.4013 O.2     1  UNL1       -0.2907
     20 C         142.1139  140.5504  169.1339 C.3     1  UNL1        0.0568
     21 C         142.8144  139.2541  168.8534 C.3     1  UNL1        0.0077
     22 C         142.3654  140.0815  170.5363 C.3     1  UNL1        0.0077
     23 C         142.1056  140.5691  167.6340 C.3     1  UNL1        0.0141
     24 C         142.7188  139.4356  166.8664 C.3     1  UNL1        0.0014
     25 C         142.7106  139.4543  165.3666 C.3     1  UNL1        0.0038
     26 C         142.0891  140.6064  164.6343 C.3     1  UNL1        0.0159
     27 C         141.4676  141.7586  163.9020 C.3     1  UNL1        0.0041
     28 C         142.0809  140.6252  163.1344 C.3     1  UNL1        0.0101
     29 C         142.7024  139.4730  163.8667 C.3     1  UNL1        0.0007
     30 C         142.6941  139.4917  162.3668 C.3     1  UNL1        0.0013
     31 C         142.6859  139.5103  160.8670 C.3     1  UNL1        0.0106
     32 C         142.6776  139.5291  159.3671 C.2     1  UNL1        0.3160
     33 O         144.1360  139.5620  159.0180 O.2     1  UNL1       -0.2501
     34 C         142.3498  137.3875  157.9331 C.3     1  UNL1        0.2556
     35 O         141.8323  138.3627  158.9486 O.3     1  UNL1       -0.4444
     36 C         140.2659  143.9695  169.9367 C.1     1  UNL1        0.1030
     37 N         139.6527  145.1030  170.7042 N.1     1  UNL1       -0.1907
@<TRIPOS>BOND
     1    34    35    1
     2    35    32    1
     3    32    33    2
     4     1    32    1
     5     1     2    1
     6     2     3    1
     7     3     4    1
     8     4     5    1
     9     4     6    1
    10     4     7    1
    11     8     7    1
    12     8     9    1
    13     9    10    1
    14    10    11    2
    15    10    12    1
    16    12    13    2
    17    13    14    1
    18    14    15    1
    19    14    16    1
    20    16    17    2
    21    17    36    1
    22    36    37    3
    23    17    18    1
    24    18    19    2
    25    18    20    1
    26    20    21    1
    27    20    22    1
    28    20    23    1
    29    23    24    1
    30    24    25    1
    31    25    26    1
    32    26    27    1
    33    26    28    1
    34    28    29    1
    35    28    30    1
    36    30    31    1
    37     8     1    1
    38    28     9    1
    39    31     1    1
    40    26    13    1
    41    23    14    1
@<TRIPOS>MOLECULE
*****
 37 41 0 0 0
SMALL
GASTEIGER

@<TRIPOS>ATOM
      1 C         139.5876  143.6645  158.2807 C.3     1  UNL1        0.0900
      2 C         139.4870  144.0414  156.8324 C.3     1  UNL1        0.0106
      3 C         138.5602  143.2889  155.9243 C.3     1  UNL1        0.0005
      4 C         137.7340  142.1594  156.4645 C.3     1  UNL1        0.0000
      5 C         136.7548  141.0240  156.5068 C.3     1  UNL1        0.0000
      6 C         137.2933  142.1420  155.0308 C.3     1  UNL1        0.0000
      7 C         137.8346  141.7825  157.9129 C.3     1  UNL1        0.0010
      8 C         138.7615  142.5350  158.8210 C.3     1  UNL1        0.0173
      9 C         138.8622  142.1581  160.2694 C.3     1  UNL1        0.0627
     10 C         138.0360  141.0287  160.8096 C.2     1  UNL1        0.1721
     11 O         137.1091  140.2762  159.9015 O.2     1  UNL1       -0.2914
     12 C         138.1366  140.6518  162.2580 C.2     1  UNL1        0.0292
     13 C         139.0635  141.4043  163.1662 C.2     1  UNL1       -0.0388
     14 C         139.1641  141.0274  164.6145 C.3     1  UNL1        0.0349
     15 C         138.2373  140.2749  163.7064 C.3     1  UNL1        0.0085
     16 C         138.3380  139.8980  165.1548 C.2     1  UNL1       -0.0098
     17 C         138.4386  139.5211  166.6031 C.2     1  UNL1        0.0990
     18 C         139.3655  140.2736  167.5113 C.2     1  UNL1        0.1815
     19 O         139.4661  139.8967  168.9597 O.2     1  UNL1       -0.2907
     20 C         140.1916  141.4030  166.9711 C.3     1  UNL1        0.0568
     21 C         141.1709  142.5385  166.9287 C.3     1  UNL1        0.0077
     22 C         140.6324  141.4204  168.4047 C.3     1  UNL1        0.0077
     23 C         140.0910  141.7799  165.5226 C.3     1  UNL1        0.0141
     24 C         140.9171  142.9093  164.9824 C.3     1  UNL1        0.0014
     25 C         140.8165  143.2863  163.5340 C.3     1  UNL1        0.0038
     26 C         139.8897  142.5338  162.6259 C.3     1  UNL1        0.0159
     27 C         138.9628  141.7812  161.7177 C.3     1  UNL1        0.0041
     28 C         139.7890  142.9106  161.1775 C.3     1  UNL1        0.0101
     29 C         140.7158  143.6632  162.0857 C.3     1  UNL1        0.0007
     30 C         140.6151  144.0401  160.6373 C.3     1  UNL1        0.0013
     31 C         140.5145  144.4170  159.1889 C.3     1  UNL1        0.0106
     32 C         140.4138  144.7939  157.7405 C.2     1  UNL1        0.3160
     33 O         139.8871  146.1976  157.7871 O.2     1  UNL1       -0.2501
     34 C         142.3047  145.4004  156.0652 C.3     1  UNL1        0.2556
     35 O         141.7667  144.5196  157.1536 O.3     1  UNL1       -0.4444
     36 C         137.6125  138.3917  167.1434 C.1     1  UNL1        0.1030
     37 N         136.7863  137.2623  167.6836 N.1     1  UNL1       -0.1907
@<TRIPOS>BOND
     1    34    35    1
     2    35    32    1
     3    32    33    2
     4     1    32    1
     5     1     2    1
     6     2     3    1
     7     3     4    1
     8     4     5    1
     9     4     6    1
    10     4     7    1
    11     8     7    1
    12     8     9    1
    13     9    10    1
    14    10    11    2
    15    10    12    1
    16    12    13    2
    17    13    14    1
    18    14    15    1
    19    14    16    1
    20    16    17    2
    21    17    36    1
    22    36    37    3
    23    17    18    1
    24    18    19    2
    25    18    20    1
    26    20    21    1
    27    20    22    1
    28    20    23    1
    29    23    24    1
    30    24    25    1
    31    25    26    1
    32    26    27    1
    33    26    28    1
    34    28    29    1
    35    28    30    1
    36    30    31    1
    37     8     1    1
    38    28     9    1
    39    31     1    1
    40    26    13    1
    41    23    14    1
@<TRIPOS>MOLECULE
*****
 37 41 0 0 0
SMALL
GASTEIGER

@<TRIPOS>ATOM
      1 C         141.9925  140.3235  159.9983 C.3     1  UNL1        0.0900
      2 C         142.3689  140.2768  158.5471 C.3     1  UNL1        0.0106
      3 C         143.5440  141.0663  158.0514 C.3     1  UNL1        0.0005
      4 C         144.3426  141.9025  159.0068 C.3     1  UNL1        0.0000
      5 C         145.3995  142.8350  159.5201 C.3     1  UNL1        0.0000
      6 C         145.0861  142.1797  157.7339 C.3     1  UNL1        0.0000
      7 C         143.9662  141.9492  160.4580 C.3     1  UNL1        0.0010
      8 C         142.7911  141.1597  160.9538 C.3     1  UNL1        0.0173
      9 C         142.4146  141.2064  162.4051 C.3     1  UNL1        0.0627
     10 C         143.2132  142.0426  163.3605 C.2     1  UNL1        0.1721
     11 O         144.3884  142.8321  162.8647 O.2     1  UNL1       -0.2914
     12 C         142.8368  142.0893  164.8118 C.2     1  UNL1        0.0292
     13 C         141.6616  141.2997  165.3076 C.2     1  UNL1       -0.0388
     14 C         141.2852  141.3464  166.7588 C.3     1  UNL1        0.0349
     15 C         142.4603  142.1360  166.2630 C.3     1  UNL1        0.0085
     16 C         142.0838  142.1827  167.7142 C.2     1  UNL1       -0.0098
     17 C         141.7074  142.2294  169.1655 C.2     1  UNL1        0.0990
     18 C         140.5323  141.4398  169.6613 C.2     1  UNL1        0.1815
     19 O         140.1558  141.4865  171.1125 O.2     1  UNL1       -0.2907
     20 C         139.7336  140.6036  168.7058 C.3     1  UNL1        0.0568
     21 C         138.6768  139.6711  168.1924 C.3     1  UNL1        0.0077
     22 C         138.9901  140.3265  169.9788 C.3     1  UNL1        0.0077
     23 C         140.1101  140.5569  167.2545 C.3     1  UNL1        0.0141
     24 C         139.3115  139.7207  166.2991 C.3     1  UNL1        0.0014
     25 C         139.6879  139.6740  164.8478 C.3     1  UNL1        0.0038
     26 C         140.8630  140.4635  164.3521 C.3     1  UNL1        0.0159
     27 C         142.0381  141.2531  163.8563 C.3     1  UNL1        0.0041
     28 C         141.2395  140.4169  162.9008 C.3     1  UNL1        0.0101
     29 C         140.0644  139.6273  163.3966 C.3     1  UNL1        0.0007
     30 C         140.4409  139.5806  161.9453 C.3     1  UNL1        0.0013
     31 C         140.8173  139.5339  160.4941 C.3     1  UNL1        0.0106
     32 C         141.1938  139.4873  159.0429 C.2     1  UNL1        0.3160
     33 O         141.5888  138.0642  158.7807 O.2     1  UNL1       -0.2501
     34 C         139.2701  139.2774  157.3092 C.3     1  UNL1        0.2556
     35 O         140.0001  140.0742  158.3495 O.3     1  UNL1       -0.4444
     36 C         142.5060  143.0656  170.1209 C.1     1  UNL1        0.1030
     37 N         143.3047  143.9018  171.0764 N.1     1  UNL1       -0.1907
@<TRIPOS>BOND
     1    34    35    1
     2    35    32    1
     3    32    33    2
     4     1    32    1
     5     1     2    1
     6     2     3    1
     7     3     4    1
     8     4     5    1
     9     4     6    1
    10     4     7    1
    11     8     7    1
    12     8     9    1
    13     9    10    1
    14    10    11    2
    15    10    12    1
    16    12    13    2
    17    13    14    1
    18    14    15    1
    19    14    16    1
    20    16    17    2
    21    17    36    1
    22    36    37    3
    23    17    18    1
    24    18    19    2
    25    18    20    1
    26    20    21    1
    27    20    22    1
    28    20    23    1
    29    23    24    1
    30    24    25    1
    31    25    26    1
    32    26    27    1
    33    26    28    1
    34    28    29    1
    35    28    30    1
    36    30    31    1
    37     8     1    1
    38    28     9    1
    39    31     1    1
    40    26    13    1
    41    23    14    1
@<TRIPOS>MOLECULE
*****
 37 41 0 0 0
SMALL
GASTEIGER

@<TRIPOS>ATOM
      1 C         142.4272  143.6281  158.4225 C.3     1  UNL1        0.0900
      2 C         142.4800  144.0511  156.9843 C.3     1  UNL1        0.0106
      3 C         143.2273  143.2190  155.9848 C.3     1  UNL1        0.0005
      4 C         143.9218  141.9639  156.4234 C.3     1  UNL1        0.0000
      5 C         144.7325  140.7037  156.3542 C.3     1  UNL1        0.0000
      6 C         144.2561  141.9492  154.9613 C.3     1  UNL1        0.0000
      7 C         143.8690  141.5409  157.8616 C.3     1  UNL1        0.0010
      8 C         143.1217  142.3730  158.8611 C.3     1  UNL1        0.0173
      9 C         143.0689  141.9500  160.2993 C.3     1  UNL1        0.0627
     10 C         143.7634  140.6950  160.7379 C.2     1  UNL1        0.1721
     11 O         144.5108  139.8628  159.7383 O.2     1  UNL1       -0.2914
     12 C         143.7107  140.2720  162.1760 C.2     1  UNL1        0.0292
     13 C         142.9633  141.1041  163.1756 C.2     1  UNL1       -0.0388
     14 C         142.9105  140.6811  164.6138 C.3     1  UNL1        0.0349
     15 C         143.6578  139.8490  163.6142 C.3     1  UNL1        0.0085
     16 C         143.6050  139.4260  165.0524 C.2     1  UNL1       -0.0098
     17 C         143.5523  139.0030  166.4905 C.2     1  UNL1        0.0990
     18 C         142.8049  139.8351  167.4901 C.2     1  UNL1        0.1815
     19 O         142.7521  139.4122  168.9282 O.2     1  UNL1       -0.2907
     20 C         142.1104  141.0902  167.0515 C.3     1  UNL1        0.0568
     21 C         141.2997  142.3504  167.1207 C.3     1  UNL1        0.0077
     22 C         141.7760  141.1049  168.5137 C.3     1  UNL1        0.0077
     23 C         142.1632  141.5132  165.6133 C.3     1  UNL1        0.0141
     24 C         141.4686  142.7683  165.1747 C.3     1  UNL1        0.0014
     25 C         141.5214  143.1913  163.7365 C.3     1  UNL1        0.0038
     26 C         142.2688  142.3592  162.7370 C.3     1  UNL1        0.0159
     27 C         143.0161  141.5271  161.7374 C.3     1  UNL1        0.0041
     28 C         142.3216  142.7821  161.2988 C.3     1  UNL1        0.0101
     29 C         141.5742  143.6143  162.2984 C.3     1  UNL1        0.0007
     30 C         141.6270  144.0372  160.8602 C.3     1  UNL1        0.0013
     31 C         141.6798  144.4602  159.4221 C.3     1  UNL1        0.0106
     32 C         141.7326  144.8832  157.9838 C.2     1  UNL1        0.3160
     33 O         142.4720  146.1882  157.9826 O.2     1  UNL1       -0.2501
     34 C         139.7169  145.9647  156.7521 C.3     1  UNL1        0.2556
     35 O         140.2986  144.8331  157.5465 O.3     1  UNL1       -0.4444
     36 C         144.2468  137.7480  166.9291 C.1     1  UNL1        0.1030
     37 N         144.9413  136.4929  167.3677 N.1     1  UNL1       -0.1907
@<TRIPOS>BOND
     1    34    35    1
     2    35    32    1
     3    32    33    2
     4     1    32    1
     5     1     2    1
     6     2     3    1
     7     3     4    1
     8     4     5    1
     9     4     6    1
    10     4     7    1
    11     8     7    1
    12     8     9    1
    13     9    10    1
    14    10    11    2
    15    10    12    1
    16    12    13    2
    17    13    14    1
    18    14    15    1
    19    14    16    1
    20    16    17    2
    21    17    36    1
    22    36    37    3
    23    17    18    1
    24    18    19    2
    25    18    20    1
    26    20    21    1
    27    20    22    1
    28    20    23    1
    29    23    24    1
    30    24    25    1
    31    25    26    1
    32    26    27    1
    33    26    28    1
    34    28    29    1
    35    28    30    1
    36    30    31    1
    37     8     1    1
    38    28     9    1
    39    31     1    1
    40    26    13    1
    41    23    14    1
@<TRIPOS>MOLECULE
*****
 37 41 0 0 0
SMALL
GASTEIGER

@<TRIPOS>ATOM
      1 C         139.9419  141.2943  164.3599 C.3     1  UNL1        0.0900
      2 C         139.2716  141.4286  165.6950 C.3     1  UNL1        0.0106
      3 C         138.6585  140.2268  166.3506 C.3     1  UNL1        0.0005
      4 C         138.7158  138.8908  165.6711 C.3     1  UNL1        0.0000
      5 C         138.5161  137.4245  165.4258 C.3     1  UNL1        0.0000
      6 C         137.9761  138.5158  166.9210 C.3     1  UNL1        0.0000
      7 C         139.3861  138.7565  164.3360 C.3     1  UNL1        0.0010
      8 C         139.9991  139.9583  163.6804 C.3     1  UNL1        0.0173
      9 C         140.6695  139.8240  162.3452 C.3     1  UNL1        0.0627
     10 C         140.7267  138.4880  161.6657 C.2     1  UNL1        0.1721
     11 O         140.1136  137.2862  162.3213 O.2     1  UNL1       -0.2914
     12 C         141.3970  138.3537  160.3305 C.2     1  UNL1        0.0292
     13 C         142.0102  139.5555  159.6748 C.2     1  UNL1       -0.0388
     14 C         142.6805  139.4212  158.3397 C.3     1  UNL1        0.0349
     15 C         142.0674  138.2195  158.9953 C.3     1  UNL1        0.0085
     16 C         142.7377  138.0852  157.6602 C.2     1  UNL1       -0.0098
     17 C         143.4080  137.9509  156.3251 C.2     1  UNL1        0.0990
     18 C         144.0212  139.1527  155.6694 C.2     1  UNL1        0.1815
     19 O         144.6915  139.0185  154.3343 O.2     1  UNL1       -0.2907
     20 C         143.9639  140.4888  156.3489 C.3     1  UNL1        0.0568
     21 C         144.1635  141.9550  156.5943 C.3     1  UNL1        0.0077
     22 C         144.7036  140.8637  155.0990 C.3     1  UNL1        0.0077
     23 C         143.2935  140.6230  157.6841 C.3     1  UNL1        0.0141
     24 C         143.2363  141.9590  158.3636 C.3     1  UNL1        0.0014
     25 C         142.5660  142.0933  159.6987 C.3     1  UNL1        0.0038
     26 C         141.9529  140.8916  160.3544 C.3     1  UNL1        0.0159
     27 C         141.3398  139.6898  161.0100 C.3     1  UNL1        0.0041
     28 C         141.2826  141.0258  161.6896 C.3     1  UNL1        0.0101
     29 C         141.8957  142.2276  161.0339 C.3     1  UNL1        0.0007
     30 C         141.2253  142.3618  162.3691 C.3     1  UNL1        0.0013
     31 C         140.5550  142.4961  163.7042 C.3     1  UNL1        0.0106
     32 C         139.8847  142.6303  165.0394 C.2     1  UNL1        0.3160
     33 O         140.9954  143.0550  165.9536 O.2     1  UNL1       -0.2501
     34 C         138.7047  144.9158  165.4061 C.3     1  UNL1        0.2556
     35 O         138.7166  143.5417  164.8046 O.3     1  UNL1       -0.4444
     36 C         143.4653  136.6149  155.6456 C.1     1  UNL1        0.1030
     37 N         143.5225  135.2789  154.9661 N.1     1  UNL1       -0.1907
@<TRIPOS>BOND
     1    34    35    1
     2    35    32    1
     3    32    33    2
     4     1    32    1
     5     1     2    1
     6     2     3    1
     7     3     4    1
     8     4     5    1
     9     4     6    1
    10     4     7    1
    11     8     7    1
    12     8     9    1
    13     9    10    1
    14    10    11    2
    15    10    12    1
    16    12    13    2
    17    13    14    1
    18    14    15    1
    19    14    16    1
    20    16    17    2
    21    17    36    1
    22    36    37    3
    23    17    18    1
    24    18    19    2
    25    18    20    1
    26    20    21    1
    27    20    22    1
    28    20    23    1
    29    23    24    1
    30    24    25    1
    31    25    26    1
    32    26    27    1
    33    26    28    1
    34    28    29    1
    35    28    30    1
    36    30    31    1
    37     8     1    1
    38    28     9    1
    39    31     1    1
    40    26    13    1
    41    23    14    1
@<TRIPOS>MOLECULE
*****
 37 41 0 0 0
SMALL
GASTEIGER

@<TRIPOS>ATOM
      1 C         139.2676  142.5572  158.3015 C.3     1  UNL1        0.0900
      2 C         139.3178  142.9867  156.8652 C.3     1  UNL1        0.0106
      3 C         140.2226  144.1082  156.4490 C.3     1  UNL1        0.0005
      4 C         141.0773  144.8003  157.4690 C.3     1  UNL1        0.0000
      5 C         142.0691  145.7569  158.0617 C.3     1  UNL1        0.0000
      6 C         141.4719  145.5620  156.2386 C.3     1  UNL1        0.0000
      7 C         141.0272  144.3708  158.9053 C.3     1  UNL1        0.0010
      8 C         140.1223  143.2492  159.3216 C.3     1  UNL1        0.0173
      9 C         140.0721  142.8197  160.7579 C.3     1  UNL1        0.0627
     10 C         140.9268  143.5117  161.7780 C.2     1  UNL1        0.1721
     11 O         141.8317  144.6334  161.3617 O.2     1  UNL1       -0.2914
     12 C         140.8767  143.0822  163.2143 C.2     1  UNL1        0.0292
     13 C         139.9718  141.9606  163.6306 C.2     1  UNL1       -0.0388
     14 C         139.9217  141.5311  165.0668 C.3     1  UNL1        0.0349
     15 C         140.8265  142.6527  164.6506 C.3     1  UNL1        0.0085
     16 C         140.7764  142.2232  166.0869 C.2     1  UNL1       -0.0098
     17 C         140.7262  141.7937  167.5232 C.2     1  UNL1        0.0990
     18 C         139.8213  140.6721  167.9395 C.2     1  UNL1        0.1815
     19 O         139.7712  140.2426  169.3758 O.2     1  UNL1       -0.2907
     20 C         138.9666  139.9800  166.9194 C.3     1  UNL1        0.0568
     21 C         137.9749  139.0234  166.3267 C.3     1  UNL1        0.0077
     22 C         138.5721  139.2183  168.1499 C.3     1  UNL1        0.0077
     23 C         139.0168  140.4095  165.4831 C.3     1  UNL1        0.0141
     24 C         138.1621  139.7175  164.4630 C.3     1  UNL1        0.0014
     25 C         138.2123  140.1470  163.0267 C.3     1  UNL1        0.0038
     26 C         139.1171  141.2685  162.6105 C.3     1  UNL1        0.0159
     27 C         140.0220  142.3902  162.1942 C.3     1  UNL1        0.0041
     28 C         139.1673  141.6981  161.1741 C.3     1  UNL1        0.0101
     29 C         138.2624  140.5765  161.5904 C.3     1  UNL1        0.0007
     30 C         138.3126  141.0060  160.1541 C.3     1  UNL1        0.0013
     31 C         138.3627  141.4355  158.7178 C.3     1  UNL1        0.0106
     32 C         138.4129  141.8651  157.2814 C.2     1  UNL1        0.3160
     33 O         138.9077  140.6185  156.6097 O.2     1  UNL1       -0.2501
     34 C         136.1565  141.6613  156.0098 C.3     1  UNL1        0.2556
     35 O         137.0634  142.4196  156.9331 O.3     1  UNL1       -0.4444
     36 C         141.5809  142.4857  168.5432 C.1     1  UNL1        0.1030
     37 N         142.4356  143.1778  169.5633 N.1     1  UNL1       -0.1907
@<TRIPOS>BOND
     1    34    35    1
     2    35    32    1
     3    32    33    2
     4     1    32    1
     5     1     2    1
     6     2     3    1
     7     3     4    1
     8     4     5    1
     9     4     6    1
    10     4     7    1
    11     8     7    1
    12     8     9    1
    13     9    10    1
    14    10    11    2
    15    10    12    1
    16    12    13    2
    17    13    14    1
    18    14    15    1
    19    14    16    1
    20    16    17    2
    21    17    36    1
    22    36    37    3
    23    17    18    1
    24    18    19    2
    25    18    20    1
    26    20    21    1
    27    20    22    1
    28    20    23    1
    29    23    24    1
    30    24    25    1
    31    25    26    1
    32    26    27    1
    33    26    28    1
    34    28    29    1
    35    28    30    1
    36    30    31    1
    37     8     1    1
    38    28     9    1
    39    31     1    1
    40    26    13    1
    41    23    14    1
@<TRIPOS>MOLECULE
*****
 37 41 0 0 0
SMALL
GASTEIGER

@<TRIPOS>ATOM
      1 C         143.2114  139.4952  157.7914 C.3     1  UNL1        0.0900
      2 C         143.8972  139.6118  156.4625 C.3     1  UNL1        0.0106
      3 C         144.9089  140.6952  156.2333 C.3     1  UNL1        0.0005
      4 C         145.2347  141.6620  157.3329 C.3     1  UNL1        0.0000
      5 C         145.8761  142.8075  158.0584 C.3     1  UNL1        0.0000
      6 C         146.1434  142.1765  156.2560 C.3     1  UNL1        0.0000
      7 C         144.5489  141.5454  158.6617 C.3     1  UNL1        0.0010
      8 C         143.5372  140.4620  158.8910 C.3     1  UNL1        0.0173
      9 C         142.8512  140.3453  160.2199 C.3     1  UNL1        0.0627
     10 C         143.1771  141.3121  161.3195 C.2     1  UNL1        0.1721
     11 O         144.1888  142.3956  161.0902 O.2     1  UNL1       -0.2914
     12 C         142.4912  141.1955  162.6484 C.2     1  UNL1        0.0292
     13 C         141.4794  140.1120  162.8777 C.2     1  UNL1       -0.0388
     14 C         140.7936  139.9954  164.2066 C.3     1  UNL1        0.0349
     15 C         141.8053  141.0788  163.9773 C.3     1  UNL1        0.0085
     16 C         141.1194  140.9622  165.3062 C.2     1  UNL1       -0.0098
     17 C         140.4335  140.8455  166.6350 C.2     1  UNL1        0.0990
     18 C         139.4218  139.7621  166.8644 C.2     1  UNL1        0.1815
     19 O         138.7359  139.6454  168.1932 O.2     1  UNL1       -0.2907
     20 C         139.0960  138.7952  165.7648 C.3     1  UNL1        0.0568
     21 C         138.4546  137.6498  165.0392 C.3     1  UNL1        0.0077
     22 C         138.1873  138.2808  166.8417 C.3     1  UNL1        0.0077
     23 C         139.7819  138.9119  164.4358 C.3     1  UNL1        0.0141
     24 C         139.4561  137.9451  163.3362 C.3     1  UNL1        0.0014
     25 C         140.1420  138.0617  162.0074 C.3     1  UNL1        0.0038
     26 C         141.1536  139.1452  161.7781 C.3     1  UNL1        0.0159
     27 C         142.1654  140.2287  161.5488 C.3     1  UNL1        0.0041
     28 C         141.8396  139.2618  160.4492 C.3     1  UNL1        0.0101
     29 C         140.8278  138.1784  160.6785 C.3     1  UNL1        0.0007
     30 C         141.5138  138.2950  159.3496 C.3     1  UNL1        0.0013
     31 C         142.1996  138.4117  158.0207 C.3     1  UNL1        0.0106
     32 C         142.8856  138.5283  156.6918 C.2     1  UNL1        0.3160
     33 O         141.7500  138.8137  155.7543 O.2     1  UNL1       -0.2501
     34 C         143.3548  136.2978  155.4449 C.3     1  UNL1        0.2556
     35 O         143.6955  137.2762  156.5297 O.3     1  UNL1       -0.4444
     36 C         140.7593  141.8124  167.7346 C.1     1  UNL1        0.1030
     37 N         141.0851  142.7792  168.8342 N.1     1  UNL1       -0.1907
@<TRIPOS>BOND
     1    34    35    1
     2    35    32    1
     3    32    33    2
     4     1    32    1
     5     1     2    1
     6     2     3    1
     7     3     4    1
     8     4     5    1
     9     4     6    1
    10     4     7    1
    11     8     7    1
    12     8     9    1
    13     9    10    1
    14    10    11    2
    15    10    12    1
    16    12    13    2
    17    13    14    1
    18    14    15    1
    19    14    16    1
    20    16    17    2
    21    17    36    1
    22    36    37    3
    23    17    18    1
    24    18    19    2
    25    18    20    1
    26    20    21    1
    27    20    22    1
    28    20    23    1
    29    23    24    1
    30    24    25    1
    31    25    26    1
    32    26    27    1
    33    26    28    1
    34    28    29    1
    35    28    30    1
    36    30    31    1
    37     8     1    1
    38    28     9    1
    39    31     1    1
    40    26    13    1
    41    23    14    1
