@<TRIPOS>MOLECULE
*****
 33 37 0 0 0
SMALL
GASTEIGER

@<TRIPOS>ATOM
      1 N         140.1217  138.0251  162.2911 N.3     1  UNL1       -0.2695
      2 C         140.0122  137.8220  163.7732 C.3     1  UNL1        0.0939
      3 C         141.2026  138.0635  164.6534 C.3     1  UNL1        0.1107
      4 N         142.5025  138.5082  164.0514 N.am    1  UNL1       -0.2764
      5 C         143.6929  138.7498  164.9315 C.2     1  UNL1        0.2301
      6 O         144.9928  139.1945  164.3295 O.2     1  UNL1       -0.2745
      7 C         142.6120  138.7114  162.5692 C.3     1  UNL1        0.1107
      8 C         141.4217  138.4698  161.6891 C.3     1  UNL1        0.0939
      9 C         138.9313  137.7836  161.4109 C.3     1  UNL1        0.0769
     10 C         137.7340  138.6821  161.5054 C.3     1  UNL1        0.0437
     11 O         138.7728  145.7075  161.9503 O.2     1  UNL1       -0.2448
     12 C         138.3787  144.4933  162.7380 C.2     1  UNL1        0.3435
     13 O         138.0133  144.4663  164.1926 O.3     1  UNL1       -0.4404
     14 C         137.6896  143.0493  164.5630 C.3     1  UNL1        0.2356
     15 C         137.8549  142.2005  163.3374 C.ar    1  UNL1        0.0294
     16 C         137.6727  140.7302  163.1027 C.ar    1  UNL1       -0.0046
     17 C         137.9163  140.1524  161.7401 C.ar    1  UNL1       -0.0188
     18 C         138.3422  141.0448  160.6122 C.ar    1  UNL1        0.0256
     19 C         138.5244  142.5151  160.8469 C.ar    1  UNL1        0.1458
     20 F         138.9503  143.4075  159.7189 F       1  UNL1       -0.2040
     21 C         138.2808  143.0929  162.2095 C.ar    1  UNL1        0.1025
     22 C         143.5833  138.5466  166.4137 C.3     1  UNL1        0.1116
     23 C         142.8214  139.5306  167.2512 C.ar    1  UNL1       -0.0130
     24 C         142.5297  140.9019  166.7180 C.ar    1  UNL1       -0.0022
     25 C         141.7679  141.8859  167.5555 C.ar    1  UNL1        0.0190
     26 C         141.2977  141.4985  168.9262 C.ar    1  UNL1        0.0862
     27 C         141.5894  140.1272  169.4594 C.ar    1  UNL1        0.0190
     28 C         142.3513  139.1432  168.6220 C.ar    1  UNL1       -0.0022
     29 N         140.5359  142.4825  169.7637 N.ar    1  UNL1       -0.1886
     30 C         140.6102  143.9767  169.6548 C.ar    1  UNL1        0.2258
     31 N         139.6863  144.5628  170.6808 N.ar    1  UNL1       -0.1045
     32 N         139.0409  143.4308  171.4238 N.ar    1  UNL1       -0.0222
     33 N         139.5659  142.1452  170.8570 N.ar    1  UNL1       -0.0385
@<TRIPOS>BOND
     1    11    12    2
     2    12    13    1
     3    13    14    1
     4    14    15    1
     5    15    16   ar
     6    16    17   ar
     7    17    10    1
     8    10     9    1
     9     9     1    1
    10     1     2    1
    11     2     3    1
    12     3     4    1
    13     4     5   am
    14     5     6    2
    15     5    22    1
    16    22    23    1
    17    23    24   ar
    18    24    25   ar
    19    25    26   ar
    20    26    29    1
    21    29    30   ar
    22    30    31   ar
    23    31    32   ar
    24    32    33   ar
    25    26    27   ar
    26    27    28   ar
    27     4     7    1
    28     7     8    1
    29    17    18   ar
    30    18    19   ar
    31    19    20    1
    32    19    21   ar
    33    21    12    1
    34    21    15   ar
    35     8     1    1
    36    28    23   ar
    37    33    29   ar
@<TRIPOS>MOLECULE
*****
 33 37 0 0 0
SMALL
GASTEIGER

@<TRIPOS>ATOM
      1 N         139.9961  137.9173  162.5410 N.3     1  UNL1       -0.2695
      2 C         139.9450  137.7741  164.0332 C.3     1  UNL1        0.0939
      3 C         141.1695  138.0476  164.8554 C.3     1  UNL1        0.1107
      4 N         142.4451  138.4644  164.1851 N.am    1  UNL1       -0.2764
      5 C         143.6696  138.7379  165.0072 C.2     1  UNL1        0.2301
      6 O         144.9451  139.1546  164.3370 O.2     1  UNL1       -0.2745
      7 C         142.4962  138.6075  162.6928 C.3     1  UNL1        0.1107
      8 C         141.2717  138.3340  161.8708 C.3     1  UNL1        0.0939
      9 C         138.7716  137.6438  161.7189 C.3     1  UNL1        0.0769
     10 C         137.6704  138.6600  161.6524 C.3     1  UNL1        0.0437
     11 O         138.8258  145.4331  163.5028 O.2     1  UNL1       -0.2448
     12 C         138.9737  144.4456  162.3834 C.2     1  UNL1        0.3435
     13 O         139.5546  144.7279  161.0296 O.3     1  UNL1       -0.4404
     14 C         139.5065  143.4592  160.2308 C.3     1  UNL1        0.2356
     15 C         138.8959  142.3927  161.0909 C.ar    1  UNL1        0.0294
     16 C         138.5972  140.9453  160.8347 C.ar    1  UNL1       -0.0046
     17 C         137.9691  140.1075  161.9088 C.ar    1  UNL1       -0.0188
     18 C         137.6399  140.7171  163.2391 C.ar    1  UNL1        0.0256
     19 C         137.9386  142.1646  163.4954 C.ar    1  UNL1        0.1458
     20 F         137.6092  142.7742  164.8259 F       1  UNL1       -0.2040
     21 C         138.5666  143.0024  162.4213 C.ar    1  UNL1        0.1025
     22 C         143.6184  138.5947  166.4995 C.3     1  UNL1        0.1116
     23 C         142.8425  139.5809  167.3213 C.ar    1  UNL1       -0.0130
     24 C         142.6702  140.9899  166.8367 C.ar    1  UNL1       -0.0022
     25 C         141.8943  141.9761  167.6585 C.ar    1  UNL1        0.0190
     26 C         141.2907  141.5532  168.9650 C.ar    1  UNL1        0.0862
     27 C         141.4630  140.1443  169.4497 C.ar    1  UNL1        0.0190
     28 C         142.2389  139.1580  168.6279 C.ar    1  UNL1       -0.0022
     29 N         140.5148  142.5395  169.7868 N.ar    1  UNL1       -0.1886
     30 C         140.5626  144.0325  169.6495 C.ar    1  UNL1        0.2258
     31 N         139.6323  144.6217  170.6680 N.ar    1  UNL1       -0.1045
     32 N         139.0096  143.4929  171.4348 N.ar    1  UNL1       -0.0222
     33 N         139.5550  142.2061  170.8903 N.ar    1  UNL1       -0.0385
@<TRIPOS>BOND
     1    11    12    2
     2    12    13    1
     3    13    14    1
     4    14    15    1
     5    15    16   ar
     6    16    17   ar
     7    17    10    1
     8    10     9    1
     9     9     1    1
    10     1     2    1
    11     2     3    1
    12     3     4    1
    13     4     5   am
    14     5     6    2
    15     5    22    1
    16    22    23    1
    17    23    24   ar
    18    24    25   ar
    19    25    26   ar
    20    26    29    1
    21    29    30   ar
    22    30    31   ar
    23    31    32   ar
    24    32    33   ar
    25    26    27   ar
    26    27    28   ar
    27     4     7    1
    28     7     8    1
    29    17    18   ar
    30    18    19   ar
    31    19    20    1
    32    19    21   ar
    33    21    12    1
    34    21    15   ar
    35     8     1    1
    36    28    23   ar
    37    33    29   ar
@<TRIPOS>MOLECULE
*****
 33 37 0 0 0
SMALL
GASTEIGER

@<TRIPOS>ATOM
      1 N         141.5875  140.4036  160.3111 N.3     1  UNL1       -0.2695
      2 C         141.6073  139.5233  161.5254 C.3     1  UNL1        0.0939
      3 C         140.4561  139.5455  162.4868 C.3     1  UNL1        0.1107
      4 N         139.2851  140.4481  162.2339 N.am    1  UNL1       -0.2764
      5 C         138.1339  140.4704  163.1952 C.2     1  UNL1        0.2301
      6 O         136.9629  141.3730  162.9423 O.2     1  UNL1       -0.2745
      7 C         139.2653  141.3285  161.0195 C.3     1  UNL1        0.1107
      8 C         140.4165  141.3062  160.0582 C.3     1  UNL1        0.0939
      9 C         142.7387  140.3814  159.3497 C.3     1  UNL1        0.0769
     10 C         143.9286  141.2640  159.5838 C.3     1  UNL1        0.0437
     11 O         145.1901  144.0142  166.0242 O.2     1  UNL1       -0.2448
     12 C         144.4286  144.2259  164.7493 C.2     1  UNL1        0.3435
     13 O         143.5084  145.3726  164.4521 O.3     1  UNL1       -0.4404
     14 C         142.9647  145.1836  163.0669 C.3     1  UNL1        0.2356
     15 C         143.5489  143.9201  162.5081 C.ar    1  UNL1        0.0294
     16 C         143.3739  143.2320  161.1868 C.ar    1  UNL1       -0.0046
     17 C         144.1036  141.9521  160.9052 C.ar    1  UNL1       -0.0188
     18 C         145.0083  141.3603  161.9450 C.ar    1  UNL1        0.0256
     19 C         145.1834  142.0483  163.2664 C.ar    1  UNL1        0.1458
     20 F         146.0881  141.4564  164.3062 F       1  UNL1       -0.2040
     21 C         144.4536  143.3282  163.5479 C.ar    1  UNL1        0.1025
     22 C         138.1538  139.5899  164.4096 C.3     1  UNL1        0.1116
     23 C         138.7451  140.0948  165.6923 C.ar    1  UNL1       -0.0130
     24 C         138.5652  139.3133  166.9599 C.ar    1  UNL1       -0.0022
     25 C         139.1565  139.8182  168.2426 C.ar    1  UNL1        0.0190
     26 C         139.9278  141.1046  168.2578 C.ar    1  UNL1        0.0862
     27 C         140.1077  141.8862  166.9903 C.ar    1  UNL1        0.0190
     28 C         139.5164  141.3814  165.7075 C.ar    1  UNL1       -0.0022
     29 N         140.5191  141.6095  169.5406 N.ar    1  UNL1       -0.1886
     30 C         141.7394  142.4722  169.6695 C.ar    1  UNL1        0.2258
     31 N         141.9684  142.7362  171.1282 N.ar    1  UNL1       -0.1045
     32 N         140.8897  142.0366  171.9008 N.ar    1  UNL1       -0.0222
     33 N         139.9940  141.3403  170.9196 N.ar    1  UNL1       -0.0385
@<TRIPOS>BOND
     1    11    12    2
     2    12    13    1
     3    13    14    1
     4    14    15    1
     5    15    16   ar
     6    16    17   ar
     7    17    10    1
     8    10     9    1
     9     9     1    1
    10     1     2    1
    11     2     3    1
    12     3     4    1
    13     4     5   am
    14     5     6    2
    15     5    22    1
    16    22    23    1
    17    23    24   ar
    18    24    25   ar
    19    25    26   ar
    20    26    29    1
    21    29    30   ar
    22    30    31   ar
    23    31    32   ar
    24    32    33   ar
    25    26    27   ar
    26    27    28   ar
    27     4     7    1
    28     7     8    1
    29    17    18   ar
    30    18    19   ar
    31    19    20    1
    32    19    21   ar
    33    21    12    1
    34    21    15   ar
    35     8     1    1
    36    28    23   ar
    37    33    29   ar
@<TRIPOS>MOLECULE
*****
 33 37 0 0 0
SMALL
GASTEIGER

@<TRIPOS>ATOM
      1 N         138.6428  140.1712  159.9319 N.3     1  UNL1       -0.2695
      2 C         137.7795  140.1652  161.1585 C.3     1  UNL1        0.0939
      3 C         138.1506  139.3087  162.3327 C.3     1  UNL1        0.1107
      4 N         139.3850  138.4581  162.2802 N.am    1  UNL1       -0.2764
      5 C         139.7561  137.6016  163.4543 C.2     1  UNL1        0.2301
      6 O         140.9905  136.7510  163.4018 O.2     1  UNL1       -0.2745
      7 C         140.2483  138.4641  161.0535 C.3     1  UNL1        0.1107
      8 C         139.8772  139.3206  159.8794 C.3     1  UNL1        0.0939
      9 C         138.2717  141.0277  158.7577 C.3     1  UNL1        0.0769
     10 C         138.6175  142.4872  158.7550 C.3     1  UNL1        0.0437
     11 O         144.2487  144.6980  162.5013 O.2     1  UNL1       -0.2448
     12 C         142.7504  144.6272  162.5027 C.2     1  UNL1        0.3435
     13 O         141.8443  145.1429  163.5811 O.3     1  UNL1       -0.4404
     14 C         140.4290  144.8627  163.1708 C.3     1  UNL1        0.2356
     15 C         140.4603  144.1737  161.8388 C.ar    1  UNL1        0.0294
     16 C         139.3679  143.6601  160.9485 C.ar    1  UNL1       -0.0046
     17 C         139.7101  143.0009  159.6453 C.ar    1  UNL1       -0.0188
     18 C         141.1447  142.8554  159.2324 C.ar    1  UNL1        0.0256
     19 C         142.2373  143.3690  160.1226 C.ar    1  UNL1        0.1458
     20 F         143.6720  143.2234  159.7097 F       1  UNL1       -0.2040
     21 C         141.8950  144.0282  161.4259 C.ar    1  UNL1        0.1025
     22 C         138.8927  137.5956  164.6810 C.3     1  UNL1        0.1116
     23 C         139.1704  138.5573  165.7981 C.ar    1  UNL1       -0.0130
     24 C         138.1882  138.7049  166.9222 C.ar    1  UNL1       -0.0022
     25 C         138.4659  139.6666  168.0394 C.ar    1  UNL1        0.0190
     26 C         139.7257  140.4807  168.0324 C.ar    1  UNL1        0.0862
     27 C         140.7079  140.3332  166.9084 C.ar    1  UNL1        0.0190
     28 C         140.4303  139.3715  165.7912 C.ar    1  UNL1       -0.0022
     29 N         140.0033  141.4424  169.1497 N.ar    1  UNL1       -0.1886
     30 C         140.7168  142.7560  169.0254 C.ar    1  UNL1        0.2258
     31 N         140.7706  143.3848  170.3861 N.ar    1  UNL1       -0.1045
     32 N         140.0904  142.4599  171.3514 N.ar    1  UNL1       -0.0222
     33 N         139.6162  141.2595  170.5872 N.ar    1  UNL1       -0.0385
@<TRIPOS>BOND
     1    11    12    2
     2    12    13    1
     3    13    14    1
     4    14    15    1
     5    15    16   ar
     6    16    17   ar
     7    17    10    1
     8    10     9    1
     9     9     1    1
    10     1     2    1
    11     2     3    1
    12     3     4    1
    13     4     5   am
    14     5     6    2
    15     5    22    1
    16    22    23    1
    17    23    24   ar
    18    24    25   ar
    19    25    26   ar
    20    26    29    1
    21    29    30   ar
    22    30    31   ar
    23    31    32   ar
    24    32    33   ar
    25    26    27   ar
    26    27    28   ar
    27     4     7    1
    28     7     8    1
    29    17    18   ar
    30    18    19   ar
    31    19    20    1
    32    19    21   ar
    33    21    12    1
    34    21    15   ar
    35     8     1    1
    36    28    23   ar
    37    33    29   ar
@<TRIPOS>MOLECULE
*****
 33 37 0 0 0
SMALL
GASTEIGER

@<TRIPOS>ATOM
      1 N         141.5904  138.7453  160.4435 N.3     1  UNL1       -0.2695
      2 C         141.1699  138.0209  161.6877 C.3     1  UNL1        0.0939
      3 C         141.9714  138.1663  162.9474 C.3     1  UNL1        0.1107
      4 N         143.1934  139.0360  162.9625 N.am    1  UNL1       -0.2764
      5 C         143.9949  139.1814  164.2221 C.2     1  UNL1        0.2301
      6 O         145.2169  140.0512  164.2372 O.2     1  UNL1       -0.2745
      7 C         143.6139  139.7604  161.7181 C.3     1  UNL1        0.1107
      8 C         142.8124  139.6151  160.4586 C.3     1  UNL1        0.0939
      9 C         140.7889  138.6000  159.1838 C.3     1  UNL1        0.0769
     10 C         139.4743  139.3089  159.0453 C.3     1  UNL1        0.0437
     11 O         137.4858  144.3031  163.7075 O.2     1  UNL1       -0.2448
     12 C         138.3322  144.0525  162.4948 C.2     1  UNL1        0.3435
     13 O         139.1865  145.0650  161.7913 O.3     1  UNL1       -0.4404
     14 C         139.8552  144.3837  160.6343 C.3     1  UNL1        0.2356
     15 C         139.4141  142.9501  160.6227 C.ar    1  UNL1        0.0294
     16 C         139.7479  141.8046  159.7136 C.ar    1  UNL1       -0.0046
     17 C         139.1405  140.4544  159.9544 C.ar    1  UNL1       -0.0188
     18 C         138.1992  140.2497  161.1042 C.ar    1  UNL1        0.0256
     19 C         137.8653  141.3952  162.0133 C.ar    1  UNL1        0.1458
     20 F         136.9240  141.1905  163.1631 F       1  UNL1       -0.2040
     21 C         138.4728  142.7454  161.7725 C.ar    1  UNL1        0.1025
     22 C         143.5744  138.4569  165.4664 C.3     1  UNL1        0.1116
     23 C         142.9377  139.2124  166.5951 C.ar    1  UNL1       -0.0130
     24 C         142.1345  140.4472  166.3122 C.ar    1  UNL1       -0.0022
     25 C         141.4978  141.2027  167.4409 C.ar    1  UNL1        0.0190
     26 C         141.6644  140.7233  168.8524 C.ar    1  UNL1        0.0862
     27 C         142.4676  139.4886  169.1354 C.ar    1  UNL1        0.0190
     28 C         143.1043  138.7330  168.0067 C.ar    1  UNL1       -0.0022
     29 N         141.0277  141.4789  169.9811 N.ar    1  UNL1       -0.1886
     30 C         140.0320  142.5925  169.8457 C.ar    1  UNL1        0.2258
     31 N         139.6638  143.0554  171.2242 N.ar    1  UNL1       -0.1045
     32 N         140.4320  142.2278  172.2116 N.ar    1  UNL1       -0.0222
     33 N         141.2749  141.2535  171.4433 N.ar    1  UNL1       -0.0385
@<TRIPOS>BOND
     1    11    12    2
     2    12    13    1
     3    13    14    1
     4    14    15    1
     5    15    16   ar
     6    16    17   ar
     7    17    10    1
     8    10     9    1
     9     9     1    1
    10     1     2    1
    11     2     3    1
    12     3     4    1
    13     4     5   am
    14     5     6    2
    15     5    22    1
    16    22    23    1
    17    23    24   ar
    18    24    25   ar
    19    25    26   ar
    20    26    29    1
    21    29    30   ar
    22    30    31   ar
    23    31    32   ar
    24    32    33   ar
    25    26    27   ar
    26    27    28   ar
    27     4     7    1
    28     7     8    1
    29    17    18   ar
    30    18    19   ar
    31    19    20    1
    32    19    21   ar
    33    21    12    1
    34    21    15   ar
    35     8     1    1
    36    28    23   ar
    37    33    29   ar
@<TRIPOS>MOLECULE
*****
 33 37 0 0 0
SMALL
GASTEIGER

@<TRIPOS>ATOM
      1 N         138.7924  140.9997  160.2183 N.3     1  UNL1       -0.2695
      2 C         137.9223  140.9407  161.4387 C.3     1  UNL1        0.0939
      3 C         138.1996  139.9272  162.5093 C.3     1  UNL1        0.1107
      4 N         139.3470  138.9728  162.3594 N.am    1  UNL1       -0.2764
      5 C         139.6243  137.9594  163.4299 C.2     1  UNL1        0.2301
      6 O         140.7717  137.0050  163.2800 O.2     1  UNL1       -0.2745
      7 C         140.2171  139.0318  161.1390 C.3     1  UNL1        0.1107
      8 C         139.9398  140.0453  160.0684 C.3     1  UNL1        0.0939
      9 C         138.5151  142.0131  159.1477 C.3     1  UNL1        0.0769
     10 C         139.4555  143.1634  158.9422 C.3     1  UNL1        0.0437
     11 O         143.7507  145.1390  164.2603 O.2     1  UNL1       -0.2448
     12 C         143.6917  144.3498  162.9860 C.2     1  UNL1        0.3435
     13 O         144.8262  143.5881  162.3674 O.3     1  UNL1       -0.4404
     14 C         144.3236  142.9513  161.1057 C.3     1  UNL1        0.2356
     15 C         142.8785  143.3195  160.9445 C.ar    1  UNL1        0.0294
     16 C         141.8677  142.9794  159.8897 C.ar    1  UNL1       -0.0046
     17 C         140.4664  143.5036  159.9970 C.ar    1  UNL1       -0.0188
     18 C         140.0758  144.3678  161.1591 C.ar    1  UNL1        0.0256
     19 C         141.0866  144.7080  162.2139 C.ar    1  UNL1        0.1458
     20 F         140.6960  145.5723  163.3760 F       1  UNL1       -0.2040
     21 C         142.4879  144.1838  162.1066 C.ar    1  UNL1        0.1025
     22 C         138.7541  137.9004  164.6503 C.3     1  UNL1        0.1116
     23 C         139.1312  138.6748  165.8784 C.ar    1  UNL1       -0.0130
     24 C         138.1505  138.8200  167.0040 C.ar    1  UNL1       -0.0022
     25 C         138.5276  139.5944  168.2321 C.ar    1  UNL1        0.0190
     26 C         139.8854  140.2235  168.3345 C.ar    1  UNL1        0.0862
     27 C         140.8662  140.0783  167.2089 C.ar    1  UNL1        0.0190
     28 C         140.4891  139.3039  165.9808 C.ar    1  UNL1       -0.0022
     29 N         140.2625  140.9979  169.5626 N.ar    1  UNL1       -0.1886
     30 C         141.6298  141.0680  170.1754 C.ar    1  UNL1        0.2258
     31 N         141.5508  141.9515  171.3850 N.ar    1  UNL1       -0.1045
     32 N         140.1348  142.4274  171.5198 N.ar    1  UNL1       -0.0222
     33 N         139.3385  141.8381  170.3935 N.ar    1  UNL1       -0.0385
@<TRIPOS>BOND
     1    11    12    2
     2    12    13    1
     3    13    14    1
     4    14    15    1
     5    15    16   ar
     6    16    17   ar
     7    17    10    1
     8    10     9    1
     9     9     1    1
    10     1     2    1
    11     2     3    1
    12     3     4    1
    13     4     5   am
    14     5     6    2
    15     5    22    1
    16    22    23    1
    17    23    24   ar
    18    24    25   ar
    19    25    26   ar
    20    26    29    1
    21    29    30   ar
    22    30    31   ar
    23    31    32   ar
    24    32    33   ar
    25    26    27   ar
    26    27    28   ar
    27     4     7    1
    28     7     8    1
    29    17    18   ar
    30    18    19   ar
    31    19    20    1
    32    19    21   ar
    33    21    12    1
    34    21    15   ar
    35     8     1    1
    36    28    23   ar
    37    33    29   ar
@<TRIPOS>MOLECULE
*****
 33 37 0 0 0
SMALL
GASTEIGER

@<TRIPOS>ATOM
      1 N         142.2352  141.7519  159.6859 N.3     1  UNL1       -0.2695
      2 C         141.8999  140.6623  160.6605 C.3     1  UNL1        0.0939
      3 C         142.8233  140.3703  161.8061 C.3     1  UNL1        0.1107
      4 N         144.0820  141.1680  161.9768 N.am    1  UNL1       -0.2764
      5 C         145.0054  140.8761  163.1223 C.2     1  UNL1        0.2301
      6 O         146.2641  141.6739  163.2930 O.2     1  UNL1       -0.2745
      7 C         144.4173  142.2578  161.0021 C.3     1  UNL1        0.1107
      8 C         143.4939  142.5497  159.8566 C.3     1  UNL1        0.0939
      9 C         141.3118  142.0439  158.5403 C.3     1  UNL1        0.0769
     10 C         140.0508  142.8222  158.7730 C.3     1  UNL1        0.0437
     11 O         138.5491  145.1515  165.3268 O.2     1  UNL1       -0.2448
     12 C         138.2635  144.0594  164.3390 C.2     1  UNL1        0.3435
     13 O         137.3512  142.8890  164.5578 O.3     1  UNL1       -0.4404
     14 C         137.3640  142.0522  163.3130 C.3     1  UNL1        0.2356
     15 C         138.2842  142.7053  162.3248 C.ar    1  UNL1        0.0294
     16 C         138.6878  142.3308  160.9296 C.ar    1  UNL1       -0.0046
     17 C         139.6473  143.1968  160.1684 C.ar    1  UNL1       -0.0188
     18 C         140.2032  144.4372  160.8024 C.ar    1  UNL1        0.0256
     19 C         139.7997  144.8118  162.1978 C.ar    1  UNL1        0.1458
     20 F         140.3557  146.0524  162.8318 F       1  UNL1       -0.2040
     21 C         138.8402  143.9459  162.9590 C.ar    1  UNL1        0.1025
     22 C         144.6700  139.7863  164.0969 C.3     1  UNL1        0.1116
     23 C         143.7135  140.0538  165.2210 C.ar    1  UNL1       -0.0130
     24 C         143.1989  141.4435  165.4533 C.ar    1  UNL1       -0.0022
     25 C         142.2424  141.7110  166.5774 C.ar    1  UNL1        0.0190
     26 C         141.8005  140.5888  167.4692 C.ar    1  UNL1        0.0862
     27 C         142.3150  139.1991  167.2370 C.ar    1  UNL1        0.0190
     28 C         143.2715  138.9316  166.1129 C.ar    1  UNL1       -0.0022
     29 N         140.8440  140.8564  168.5933 N.ar    1  UNL1       -0.1886
     30 C         140.6428  142.1719  169.2855 C.ar    1  UNL1        0.2258
     31 N         139.5953  141.9840  170.3425 N.ar    1  UNL1       -0.1045
     32 N         139.1490  140.5525  170.3037 N.ar    1  UNL1       -0.0222
     33 N         139.9208  139.8556  169.2226 N.ar    1  UNL1       -0.0385
@<TRIPOS>BOND
     1    11    12    2
     2    12    13    1
     3    13    14    1
     4    14    15    1
     5    15    16   ar
     6    16    17   ar
     7    17    10    1
     8    10     9    1
     9     9     1    1
    10     1     2    1
    11     2     3    1
    12     3     4    1
    13     4     5   am
    14     5     6    2
    15     5    22    1
    16    22    23    1
    17    23    24   ar
    18    24    25   ar
    19    25    26   ar
    20    26    29    1
    21    29    30   ar
    22    30    31   ar
    23    31    32   ar
    24    32    33   ar
    25    26    27   ar
    26    27    28   ar
    27     4     7    1
    28     7     8    1
    29    17    18   ar
    30    18    19   ar
    31    19    20    1
    32    19    21   ar
    33    21    12    1
    34    21    15   ar
    35     8     1    1
    36    28    23   ar
    37    33    29   ar
@<TRIPOS>MOLECULE
*****
 33 37 0 0 0
SMALL
GASTEIGER

@<TRIPOS>ATOM
      1 N         140.4823  141.4983  160.1830 N.3     1  UNL1       -0.2695
      2 C         139.6588  142.1177  161.2730 C.3     1  UNL1        0.0939
      3 C         139.1309  141.2667  162.3898 C.3     1  UNL1        0.1107
      4 N         139.4266  139.7964  162.4166 N.am    1  UNL1       -0.2764
      5 C         138.8988  138.9455  163.5334 C.2     1  UNL1        0.2301
      6 O         139.1945  137.4752  163.5602 O.2     1  UNL1       -0.2745
      7 C         140.2502  139.1771  161.3266 C.3     1  UNL1        0.1107
      8 C         140.7780  140.0280  160.2098 C.3     1  UNL1        0.0939
      9 C         141.0102  142.3493  159.0662 C.3     1  UNL1        0.0769
     10 C         142.1823  143.2548  159.3027 C.3     1  UNL1        0.0437
     11 O         144.8277  144.0943  165.8549 O.2     1  UNL1       -0.2448
     12 C         144.9000  143.2395  164.6244 C.2     1  UNL1        0.3435
     13 O         145.7816  142.0410  164.4339 O.3     1  UNL1       -0.4404
     14 C         145.5298  141.4940  163.0600 C.3     1  UNL1        0.2356
     15 C         144.4926  142.3544  162.4014 C.ar    1  UNL1        0.0294
     16 C         143.8522  142.2950  161.0463 C.ar    1  UNL1       -0.0046
     17 C         142.8226  143.3143  160.6580 C.ar    1  UNL1       -0.0188
     18 C         142.4334  144.3930  161.6247 C.ar    1  UNL1        0.0256
     19 C         143.0737  144.4525  162.9799 C.ar    1  UNL1        0.1458
     20 F         142.6844  145.5314  163.9467 F       1  UNL1       -0.2040
     21 C         144.1033  143.4332  163.3682 C.ar    1  UNL1        0.1025
     22 C         138.0752  139.5649  164.6234 C.3     1  UNL1        0.1116
     23 C         138.7424  140.0985  165.8563 C.ar    1  UNL1       -0.0130
     24 C         139.5249  141.3766  165.7922 C.ar    1  UNL1       -0.0022
     25 C         140.1921  141.9102  167.0252 C.ar    1  UNL1        0.0190
     26 C         140.0768  141.1656  168.3222 C.ar    1  UNL1        0.0862
     27 C         139.2943  139.8875  168.3864 C.ar    1  UNL1        0.0190
     28 C         138.6271  139.3539  167.1535 C.ar    1  UNL1       -0.0022
     29 N         140.7440  141.6993  169.5552 N.ar    1  UNL1       -0.1886
     30 C         141.8191  142.7446  169.5935 C.ar    1  UNL1        0.2258
     31 N         142.1929  142.9727  171.0282 N.ar    1  UNL1       -0.1045
     32 N         141.3488  142.0683  171.8765 N.ar    1  UNL1       -0.0222
     33 N         140.4533  141.2814  170.9661 N.ar    1  UNL1       -0.0385
@<TRIPOS>BOND
     1    11    12    2
     2    12    13    1
     3    13    14    1
     4    14    15    1
     5    15    16   ar
     6    16    17   ar
     7    17    10    1
     8    10     9    1
     9     9     1    1
    10     1     2    1
    11     2     3    1
    12     3     4    1
    13     4     5   am
    14     5     6    2
    15     5    22    1
    16    22    23    1
    17    23    24   ar
    18    24    25   ar
    19    25    26   ar
    20    26    29    1
    21    29    30   ar
    22    30    31   ar
    23    31    32   ar
    24    32    33   ar
    25    26    27   ar
    26    27    28   ar
    27     4     7    1
    28     7     8    1
    29    17    18   ar
    30    18    19   ar
    31    19    20    1
    32    19    21   ar
    33    21    12    1
    34    21    15   ar
    35     8     1    1
    36    28    23   ar
    37    33    29   ar
@<TRIPOS>MOLECULE
*****
 33 37 0 0 0
SMALL
GASTEIGER

@<TRIPOS>ATOM
      1 N         142.8230  139.7476  160.0111 N.3     1  UNL1       -0.2695
      2 C         143.3346  139.3845  161.3735 C.3     1  UNL1        0.0939
      3 C         142.4013  138.8058  162.3955 C.3     1  UNL1        0.1107
      4 N         140.9566  138.5902  162.0547 N.am    1  UNL1       -0.2764
      5 C         140.0233  138.0115  163.0766 C.2     1  UNL1        0.2301
      6 O         138.5785  137.7958  162.7358 O.2     1  UNL1       -0.2745
      7 C         140.4450  138.9532  160.6922 C.3     1  UNL1        0.1107
      8 C         141.3783  139.5319  159.6704 C.3     1  UNL1        0.0939
      9 C         143.7563  140.3263  158.9892 C.3     1  UNL1        0.0769
     10 C         144.0888  141.7886  159.0200 C.3     1  UNL1        0.0437
     11 O         139.1836  146.4281  161.2664 O.2     1  UNL1       -0.2448
     12 C         140.4003  145.6590  161.6883 C.2     1  UNL1        0.3435
     13 O         141.0406  145.6963  163.0443 O.3     1  UNL1       -0.4404
     14 C         142.2264  144.7779  163.0224 C.3     1  UNL1        0.2356
     15 C         142.3190  144.1730  161.6529 C.ar    1  UNL1        0.0294
     16 C         143.2851  143.1967  161.0501 C.ar    1  UNL1       -0.0046
     17 C         143.1226  142.7649  159.6228 C.ar    1  UNL1       -0.0188
     18 C         141.9941  143.3094  158.7984 C.ar    1  UNL1        0.0256
     19 C         141.0279  144.2858  159.4011 C.ar    1  UNL1        0.1458
     20 F         139.8993  144.8304  158.5766 F       1  UNL1       -0.2040
     21 C         141.1904  144.7176  160.8284 C.ar    1  UNL1        0.1025
     22 C         140.5349  137.6484  164.4391 C.3     1  UNL1        0.1116
     23 C         140.4069  138.6227  165.5724 C.ar    1  UNL1       -0.0130
     24 C         139.0827  138.8151  166.2502 C.ar    1  UNL1       -0.0022
     25 C         138.9547  139.7894  167.3834 C.ar    1  UNL1        0.0190
     26 C         140.1509  140.5714  167.8389 C.ar    1  UNL1        0.0862
     27 C         141.4751  140.3792  167.1612 C.ar    1  UNL1        0.0190
     28 C         141.6032  139.4048  166.0279 C.ar    1  UNL1       -0.0022
     29 N         140.0228  141.5458  168.9722 N.ar    1  UNL1       -0.1886
     30 C         140.6571  142.9032  169.0438 C.ar    1  UNL1        0.2258
     31 N         140.2643  143.5301  170.3486 N.ar    1  UNL1       -0.1045
     32 N         139.3873  142.5602  171.0835 N.ar    1  UNL1       -0.0222
     33 N         139.2380  141.3338  170.2328 N.ar    1  UNL1       -0.0385
@<TRIPOS>BOND
     1    11    12    2
     2    12    13    1
     3    13    14    1
     4    14    15    1
     5    15    16   ar
     6    16    17   ar
     7    17    10    1
     8    10     9    1
     9     9     1    1
    10     1     2    1
    11     2     3    1
    12     3     4    1
    13     4     5   am
    14     5     6    2
    15     5    22    1
    16    22    23    1
    17    23    24   ar
    18    24    25   ar
    19    25    26   ar
    20    26    29    1
    21    29    30   ar
    22    30    31   ar
    23    31    32   ar
    24    32    33   ar
    25    26    27   ar
    26    27    28   ar
    27     4     7    1
    28     7     8    1
    29    17    18   ar
    30    18    19   ar
    31    19    20    1
    32    19    21   ar
    33    21    12    1
    34    21    15   ar
    35     8     1    1
    36    28    23   ar
    37    33    29   ar
