@<TRIPOS>MOLECULE
*****
 29 33 0 0 0
SMALL
GASTEIGER

@<TRIPOS>ATOM
      1 C         141.7641  139.0435  162.0409 C.ar    1  UNL1        0.0681
      2 C         141.2101  139.7917  160.8647 C.ar    1  UNL1        0.0208
      3 C         141.7240  139.5065  159.4847 C.ar    1  UNL1        0.0384
      4 C         142.7919  138.4731  159.2808 C.ar    1  UNL1        0.1385
      5 C         143.3459  137.7249  160.4570 C.ar    1  UNL1        0.0384
      6 C         142.8320  138.0101  161.8370 C.ar    1  UNL1        0.0208
      7 C         143.2261  140.9683  163.8179 C.3     1  UNL1        0.0723
      8 C         141.9811  140.2911  164.3094 C.ar    1  UNL1        0.1268
      9 N         141.4672  140.5764  165.6894 N.ar    1  UNL1       -0.2318
     10 C         140.2222  139.8993  166.1810 C.ar    1  UNL1        0.0872
     11 C         139.7083  140.1846  167.5610 C.ar    1  UNL1        0.0193
     12 C         138.4634  139.5075  168.0525 C.ar    1  UNL1        0.0015
     13 C         137.7324  138.5451  167.1640 C.ar    1  UNL1        0.0003
     14 C         138.2463  138.2598  165.7840 C.ar    1  UNL1        0.0063
     15 C         139.4912  138.9369  165.2925 C.ar    1  UNL1        0.0742
     16 C         140.0052  138.6517  163.9124 C.ar    1  UNL1        0.2669
     17 O         139.2742  137.6893  163.0239 O.2     1  UNL1       -0.2665
     18 N         141.2501  139.3288  163.4209 N.ar    1  UNL1       -0.2626
     19 O         143.3059  138.1878  157.9007 O.3     1  UNL1       -0.4791
     20 C         142.7260  137.0575  157.1032 C.3     1  UNL1        0.1673
     21 C         141.7255  137.1842  155.9928 C.3     1  UNL1        0.0450
     22 C         141.4259  135.8070  155.4794 C.3     1  UNL1        0.0198
     23 C         142.2412  134.8291  156.2725 C.3     1  UNL1        0.0612
     24 C         143.0447  135.6019  157.2761 C.3     1  UNL1        0.0594
     25 N         142.2513  133.3399  156.0935 N.3     1  UNL1       -0.2738
     26 C         141.3865  132.5596  155.1484 C.3     1  UNL1        0.0721
     27 C         141.7286  131.1069  155.2990 C.3     1  UNL1        0.0188
     28 C         142.8049  130.9894  156.3371 C.3     1  UNL1        0.0188
     29 C         143.1279  132.3694  156.8282 C.3     1  UNL1        0.0721
@<TRIPOS>BOND
     1     7     8    1
     2     8     9   ar
     3     9    10   ar
     4    10    11   ar
     5    11    12   ar
     6    12    13   ar
     7    13    14   ar
     8    14    15   ar
     9    15    16   ar
    10    16    17    2
    11    16    18   ar
    12    18     1    1
    13     1     2   ar
    14     2     3   ar
    15     3     4   ar
    16     4    19    1
    17    19    20    1
    18    20    21    1
    19    21    22    1
    20    22    23    1
    21    23    25    1
    22    25    26    1
    23    26    27    1
    24    27    28    1
    25    28    29    1
    26    23    24    1
    27     4     5   ar
    28     5     6   ar
    29    18     8   ar
    30     6     1   ar
    31    15    10   ar
    32    24    20    1
    33    29    25    1
@<TRIPOS>MOLECULE
*****
 29 33 0 0 0
SMALL
GASTEIGER

@<TRIPOS>ATOM
      1 C         138.8845  140.4756  164.9592 C.ar    1  UNL1        0.0681
      2 C         139.4909  139.4636  164.0329 C.ar    1  UNL1        0.0208
      3 C         139.0473  139.3962  162.6016 C.ar    1  UNL1        0.0384
      4 C         137.9974  140.3409  162.0966 C.ar    1  UNL1        0.1385
      5 C         137.3909  141.3530  163.0229 C.ar    1  UNL1        0.0384
      6 C         137.8345  141.4203  164.4542 C.ar    1  UNL1        0.0208
      7 C         137.7317  138.5791  166.9776 C.3     1  UNL1        0.0723
      8 C         138.7517  139.5946  167.3998 C.ar    1  UNL1        0.1268
      9 N         139.1953  139.6619  168.8311 N.ar    1  UNL1       -0.2318
     10 C         140.2153  140.6775  169.2533 C.ar    1  UNL1        0.0872
     11 C         140.6589  140.7448  170.6846 C.ar    1  UNL1        0.0193
     12 C         141.6789  141.7603  171.1067 C.ar    1  UNL1        0.0015
     13 C         142.2553  142.7086  170.0974 C.ar    1  UNL1        0.0003
     14 C         141.8118  142.6413  168.6661 C.ar    1  UNL1        0.0063
     15 C         140.7918  141.6258  168.2441 C.ar    1  UNL1        0.0742
     16 C         140.3481  141.5585  166.8127 C.ar    1  UNL1        0.2669
     17 O         140.9246  142.5068  165.8035 O.2     1  UNL1       -0.2665
     18 N         139.3281  140.5429  166.3906 N.ar    1  UNL1       -0.2626
     19 O         137.5537  140.2736  160.6653 O.3     1  UNL1       -0.4791
     20 C         138.3618  140.9489  159.5971 C.3     1  UNL1        0.1673
     21 C         138.8348  140.3209  158.3197 C.3     1  UNL1        0.0450
     22 C         139.6041  141.3547  157.5519 C.3     1  UNL1        0.0198
     23 C         139.6065  142.6217  158.3548 C.3     1  UNL1        0.0612
     24 C         138.8387  142.3710  159.6188 C.3     1  UNL1        0.0594
     25 N         140.2616  143.9128  157.9626 N.3     1  UNL1       -0.2738
     26 C         141.4845  144.5086  158.5946 C.3     1  UNL1        0.0721
     27 C         141.7876  145.7988  157.8921 C.3     1  UNL1        0.0188
     28 C         140.7520  146.0004  156.8260 C.3     1  UNL1        0.0188
     29 C         139.8088  144.8348  156.8695 C.3     1  UNL1        0.0721
@<TRIPOS>BOND
     1     7     8    1
     2     8     9   ar
     3     9    10   ar
     4    10    11   ar
     5    11    12   ar
     6    12    13   ar
     7    13    14   ar
     8    14    15   ar
     9    15    16   ar
    10    16    17    2
    11    16    18   ar
    12    18     1    1
    13     1     2   ar
    14     2     3   ar
    15     3     4   ar
    16     4    19    1
    17    19    20    1
    18    20    21    1
    19    21    22    1
    20    22    23    1
    21    23    25    1
    22    25    26    1
    23    26    27    1
    24    27    28    1
    25    28    29    1
    26    23    24    1
    27     4     5   ar
    28     5     6   ar
    29    18     8   ar
    30     6     1   ar
    31    15    10   ar
    32    24    20    1
    33    29    25    1
@<TRIPOS>MOLECULE
*****
 29 33 0 0 0
SMALL
GASTEIGER

@<TRIPOS>ATOM
      1 C         139.7531  139.2310  164.9148 C.ar    1  UNL1        0.0681
      2 C         138.9776  140.1322  164.0002 C.ar    1  UNL1        0.0208
      3 C         138.7554  139.7379  162.5701 C.ar    1  UNL1        0.0384
      4 C         139.3086  138.4425  162.0547 C.ar    1  UNL1        0.1385
      5 C         140.0840  137.5413  162.9693 C.ar    1  UNL1        0.0384
      6 C         140.3063  137.9355  164.3994 C.ar    1  UNL1        0.0208
      7 C         137.6627  138.6257  166.9798 C.3     1  UNL1        0.0723
      8 C         138.9301  139.3226  167.3774 C.ar    1  UNL1        0.1268
      9 N         139.1523  139.7169  168.8075 N.ar    1  UNL1       -0.2318
     10 C         140.4197  140.4139  169.2051 C.ar    1  UNL1        0.0872
     11 C         140.6419  140.8081  170.6352 C.ar    1  UNL1        0.0193
     12 C         141.9092  141.5051  171.0328 C.ar    1  UNL1        0.0015
     13 C         142.9544  141.8077  170.0003 C.ar    1  UNL1        0.0003
     14 C         142.7322  141.4134  168.5702 C.ar    1  UNL1        0.0063
     15 C         141.4649  140.7165  168.1727 C.ar    1  UNL1        0.0742
     16 C         141.2426  140.3222  166.7425 C.ar    1  UNL1        0.2669
     17 O         142.2878  140.6248  165.7100 O.2     1  UNL1       -0.2665
     18 N         139.9753  139.6253  166.3449 N.ar    1  UNL1       -0.2626
     19 O         139.0863  138.0481  160.6246 O.3     1  UNL1       -0.4791
     20 C         140.0055  138.5581  159.5545 C.3     1  UNL1        0.1673
     21 C         139.9008  138.2623  158.0877 C.3     1  UNL1        0.0450
     22 C         141.0213  138.9748  157.3900 C.3     1  UNL1        0.0198
     23 C         141.8186  139.7110  158.4256 C.3     1  UNL1        0.0612
     24 C         141.1908  139.4535  159.7634 C.3     1  UNL1        0.0594
     25 N         143.0308  140.5563  158.1686 N.3     1  UNL1       -0.2738
     26 C         144.0512  140.3303  157.0927 C.3     1  UNL1        0.0721
     27 C         145.0865  141.4103  157.2015 C.3     1  UNL1        0.0188
     28 C         144.7059  142.3037  158.3448 C.3     1  UNL1        0.0188
     29 C         143.4354  141.7759  158.9425 C.3     1  UNL1        0.0721
@<TRIPOS>BOND
     1     7     8    1
     2     8     9   ar
     3     9    10   ar
     4    10    11   ar
     5    11    12   ar
     6    12    13   ar
     7    13    14   ar
     8    14    15   ar
     9    15    16   ar
    10    16    17    2
    11    16    18   ar
    12    18     1    1
    13     1     2   ar
    14     2     3   ar
    15     3     4   ar
    16     4    19    1
    17    19    20    1
    18    20    21    1
    19    21    22    1
    20    22    23    1
    21    23    25    1
    22    25    26    1
    23    26    27    1
    24    27    28    1
    25    28    29    1
    26    23    24    1
    27     4     5   ar
    28     5     6   ar
    29    18     8   ar
    30     6     1   ar
    31    15    10   ar
    32    24    20    1
    33    29    25    1
@<TRIPOS>MOLECULE
*****
 29 33 0 0 0
SMALL
GASTEIGER

@<TRIPOS>ATOM
      1 C         141.8582  139.3045  163.1913 C.ar    1  UNL1        0.0681
      2 C         142.5149  140.4192  162.4322 C.ar    1  UNL1        0.0208
      3 C         143.0234  140.1816  161.0412 C.ar    1  UNL1        0.0384
      4 C         142.8753  138.8294  160.4093 C.ar    1  UNL1        0.1385
      5 C         142.2186  137.7146  161.1684 C.ar    1  UNL1        0.0384
      6 C         141.7101  137.9522  162.5593 C.ar    1  UNL1        0.0208
      7 C         139.0344  140.2226  163.6195 C.3     1  UNL1        0.0723
      8 C         139.9377  140.0012  164.7964 C.ar    1  UNL1        0.1268
      9 N         139.4291  140.2388  166.1874 N.ar    1  UNL1       -0.2318
     10 C         140.3324  140.0174  167.3643 C.ar    1  UNL1        0.0872
     11 C         139.8238  140.2550  168.7553 C.ar    1  UNL1        0.0193
     12 C         140.7271  140.0335  169.9321 C.ar    1  UNL1        0.0015
     13 C         142.1389  139.5744  169.7180 C.ar    1  UNL1        0.0003
     14 C         142.6475  139.3368  168.3270 C.ar    1  UNL1        0.0063
     15 C         141.7443  139.5583  167.1502 C.ar    1  UNL1        0.0742
     16 C         142.2529  139.3206  165.7591 C.ar    1  UNL1        0.2669
     17 O         143.6647  138.8616  165.5450 O.2     1  UNL1       -0.2665
     18 N         141.3496  139.5421  164.5823 N.ar    1  UNL1       -0.2626
     19 O         143.3839  138.5917  159.0182 O.3     1  UNL1       -0.4791
     20 C         142.5244  137.8782  158.0171 C.3     1  UNL1        0.1673
     21 C         141.1401  138.2776  157.6000 C.3     1  UNL1        0.0450
     22 C         140.6584  137.2863  156.5824 C.3     1  UNL1        0.0198
     23 C         141.7452  136.2742  156.3707 C.3     1  UNL1        0.0612
     24 C         142.8985  136.6400  157.2574 C.3     1  UNL1        0.0594
     25 N         141.6886  135.1021  155.4364 N.3     1  UNL1       -0.2738
     26 C         141.2467  135.1374  154.0034 C.3     1  UNL1        0.0721
     27 C         141.3490  133.7461  153.4523 C.3     1  UNL1        0.0188
     28 C         141.8541  132.8509  154.5448 C.3     1  UNL1        0.0188
     29 C         142.0640  133.6889  155.7710 C.3     1  UNL1        0.0721
@<TRIPOS>BOND
     1     7     8    1
     2     8     9   ar
     3     9    10   ar
     4    10    11   ar
     5    11    12   ar
     6    12    13   ar
     7    13    14   ar
     8    14    15   ar
     9    15    16   ar
    10    16    17    2
    11    16    18   ar
    12    18     1    1
    13     1     2   ar
    14     2     3   ar
    15     3     4   ar
    16     4    19    1
    17    19    20    1
    18    20    21    1
    19    21    22    1
    20    22    23    1
    21    23    25    1
    22    25    26    1
    23    26    27    1
    24    27    28    1
    25    28    29    1
    26    23    24    1
    27     4     5   ar
    28     5     6   ar
    29    18     8   ar
    30     6     1   ar
    31    15    10   ar
    32    24    20    1
    33    29    25    1
@<TRIPOS>MOLECULE
*****
 29 33 0 0 0
SMALL
GASTEIGER

@<TRIPOS>ATOM
      1 C         139.3403  139.3577  164.5795 C.ar    1  UNL1        0.0681
      2 C         140.2880  138.3045  164.0869 C.ar    1  UNL1        0.0208
      3 C         140.2364  137.8596  162.6553 C.ar    1  UNL1        0.0384
      4 C         139.2371  138.4678  161.7165 C.ar    1  UNL1        0.1385
      5 C         138.2894  139.5209  162.2092 C.ar    1  UNL1        0.0384
      6 C         138.3410  139.9659  163.6407 C.ar    1  UNL1        0.0208
      7 C         137.7661  137.8847  166.6658 C.3     1  UNL1        0.0723
      8 C         138.6049  139.0662  167.0543 C.ar    1  UNL1        0.1268
      9 N         138.6565  139.5111  168.4858 N.ar    1  UNL1       -0.2318
     10 C         139.4952  140.6925  168.8743 C.ar    1  UNL1        0.0872
     11 C         139.5468  141.1374  170.3058 C.ar    1  UNL1        0.0193
     12 C         140.3855  142.3187  170.6943 C.ar    1  UNL1        0.0015
     13 C         141.1726  143.0552  169.6511 C.ar    1  UNL1        0.0003
     14 C         141.1209  142.6103  168.2196 C.ar    1  UNL1        0.0063
     15 C         140.2823  141.4290  167.8312 C.ar    1  UNL1        0.0742
     16 C         140.2306  140.9840  166.3996 C.ar    1  UNL1        0.2669
     17 O         141.0177  141.7205  165.3565 O.2     1  UNL1       -0.2665
     18 N         139.3919  139.8026  166.0112 N.ar    1  UNL1       -0.2626
     19 O         139.1855  138.0228  160.2849 O.3     1  UNL1       -0.4791
     20 C         139.9921  138.7438  159.2459 C.3     1  UNL1        0.1673
     21 C         139.7031  140.1091  158.6960 C.3     1  UNL1        0.0450
     22 C         140.7617  140.4352  157.6846 C.3     1  UNL1        0.0198
     23 C         141.7051  139.2714  157.6094 C.3     1  UNL1        0.0612
     24 C         141.2295  138.2260  158.5743 C.3     1  UNL1        0.0594
     25 N         142.9121  139.1706  156.7246 N.3     1  UNL1       -0.2738
     26 C         143.8938  140.2695  156.4440 C.3     1  UNL1        0.0721
     27 C         144.9379  139.7313  155.5111 C.3     1  UNL1        0.0188
     28 C         144.6015  138.2998  155.2152 C.3     1  UNL1        0.0188
     29 C         143.3495  137.9532  155.9652 C.3     1  UNL1        0.0721
@<TRIPOS>BOND
     1     7     8    1
     2     8     9   ar
     3     9    10   ar
     4    10    11   ar
     5    11    12   ar
     6    12    13   ar
     7    13    14   ar
     8    14    15   ar
     9    15    16   ar
    10    16    17    2
    11    16    18   ar
    12    18     1    1
    13     1     2   ar
    14     2     3   ar
    15     3     4   ar
    16     4    19    1
    17    19    20    1
    18    20    21    1
    19    21    22    1
    20    22    23    1
    21    23    25    1
    22    25    26    1
    23    26    27    1
    24    27    28    1
    25    28    29    1
    26    23    24    1
    27     4     5   ar
    28     5     6   ar
    29    18     8   ar
    30     6     1   ar
    31    15    10   ar
    32    24    20    1
    33    29    25    1
@<TRIPOS>MOLECULE
*****
 29 33 0 0 0
SMALL
GASTEIGER

@<TRIPOS>ATOM
      1 C         142.4289  139.7587  162.2756 C.ar    1  UNL1        0.0681
      2 C         141.2296  140.1922  161.4859 C.ar    1  UNL1        0.0208
      3 C         141.2685  140.1638  159.9867 C.ar    1  UNL1        0.0384
      4 C         142.5067  139.7017  159.2772 C.ar    1  UNL1        0.1385
      5 C         143.7060  139.2681  160.0670 C.ar    1  UNL1        0.0384
      6 C         143.6671  139.2966  161.5662 C.ar    1  UNL1        0.0208
      7 C         141.4543  137.3635  163.7966 C.3     1  UNL1        0.0723
      8 C         141.9027  138.5896  164.5354 C.ar    1  UNL1        0.1268
      9 N         141.8638  138.6180  166.0346 N.ar    1  UNL1       -0.2318
     10 C         142.3122  139.8441  166.7734 C.ar    1  UNL1        0.0872
     11 C         142.2733  139.8725  168.2726 C.ar    1  UNL1        0.0193
     12 C         142.7217  141.0986  169.0113 C.ar    1  UNL1        0.0015
     13 C         143.2090  142.2961  168.2508 C.ar    1  UNL1        0.0003
     14 C         143.2479  142.2677  166.7516 C.ar    1  UNL1        0.0063
     15 C         142.7995  141.0417  166.0129 C.ar    1  UNL1        0.0742
     16 C         142.8384  141.0132  164.5136 C.ar    1  UNL1        0.2669
     17 O         143.3258  142.2108  163.7532 O.2     1  UNL1       -0.2665
     18 N         142.3900  139.7872  163.7749 N.ar    1  UNL1       -0.2626
     19 O         142.5456  139.6732  157.7780 O.3     1  UNL1       -0.4791
     20 C         142.9138  138.4080  157.0612 C.3     1  UNL1        0.1673
     21 C         143.7872  138.3053  155.8460 C.3     1  UNL1        0.0450
     22 C         143.8864  136.8572  155.4676 C.3     1  UNL1        0.0198
     23 C         143.0744  136.0650  156.4488 C.3     1  UNL1        0.0612
     24 C         142.4732  137.0234  157.4338 C.3     1  UNL1        0.0594
     25 N         142.8949  134.5758  156.4458 N.3     1  UNL1       -0.2738
     26 C         143.6022  133.6006  157.3395 C.3     1  UNL1        0.0721
     27 C         143.1212  132.2224  156.9946 C.3     1  UNL1        0.0188
     28 C         142.1165  132.3457  155.8876 C.3     1  UNL1        0.0188
     29 C         141.9767  133.8002  155.5484 C.3     1  UNL1        0.0721
@<TRIPOS>BOND
     1     7     8    1
     2     8     9   ar
     3     9    10   ar
     4    10    11   ar
     5    11    12   ar
     6    12    13   ar
     7    13    14   ar
     8    14    15   ar
     9    15    16   ar
    10    16    17    2
    11    16    18   ar
    12    18     1    1
    13     1     2   ar
    14     2     3   ar
    15     3     4   ar
    16     4    19    1
    17    19    20    1
    18    20    21    1
    19    21    22    1
    20    22    23    1
    21    23    25    1
    22    25    26    1
    23    26    27    1
    24    27    28    1
    25    28    29    1
    26    23    24    1
    27     4     5   ar
    28     5     6   ar
    29    18     8   ar
    30     6     1   ar
    31    15    10   ar
    32    24    20    1
    33    29    25    1
@<TRIPOS>MOLECULE
*****
 29 33 0 0 0
SMALL
GASTEIGER

@<TRIPOS>ATOM
      1 C         139.4497  139.4955  164.9468 C.ar    1  UNL1        0.0681
      2 C         138.5831  140.3590  164.0788 C.ar    1  UNL1        0.0208
      3 C         138.3329  139.9750  162.6506 C.ar    1  UNL1        0.0384
      4 C         138.9492  138.7276  162.0904 C.ar    1  UNL1        0.1385
      5 C         139.8158  137.8641  162.9583 C.ar    1  UNL1        0.0384
      6 C         140.0661  138.2480  164.3866 C.ar    1  UNL1        0.0208
      7 C         137.6284  138.4944  167.1103 C.3     1  UNL1        0.0723
      8 C         138.7893  139.3790  167.4569 C.ar    1  UNL1        0.1268
      9 N         139.0395  139.7630  168.8851 N.ar    1  UNL1       -0.2318
     10 C         140.2003  140.6475  169.2317 C.ar    1  UNL1        0.0872
     11 C         140.4505  141.0315  170.6599 C.ar    1  UNL1        0.0193
     12 C         141.6113  141.9160  171.0064 C.ar    1  UNL1        0.0015
     13 C         142.5220  142.4165  169.9247 C.ar    1  UNL1        0.0003
     14 C         142.2718  142.0326  168.4964 C.ar    1  UNL1        0.0063
     15 C         141.1110  141.1481  168.1499 C.ar    1  UNL1        0.0742
     16 C         140.8607  140.7640  166.7216 C.ar    1  UNL1        0.2669
     17 O         141.7714  141.2646  165.6399 O.2     1  UNL1       -0.2665
     18 N         139.6999  139.8795  166.3751 N.ar    1  UNL1       -0.2626
     19 O         138.6990  138.3435  160.6620 O.3     1  UNL1       -0.4791
     20 C         139.0431  139.2982  159.5574 C.3     1  UNL1        0.1673
     21 C         140.3849  139.4422  158.9025 C.3     1  UNL1        0.0450
     22 C         140.2769  140.5095  157.8541 C.3     1  UNL1        0.0198
     23 C         138.8683  141.0252  157.8611 C.3     1  UNL1        0.0612
     24 C         138.1057  140.2767  158.9138 C.3     1  UNL1        0.0594
     25 N         138.3187  142.1007  156.9716 N.3     1  UNL1       -0.2738
     26 C         136.9242  142.1639  156.4228 C.3     1  UNL1        0.0721
     27 C         136.8107  143.4041  155.5867 C.3     1  UNL1        0.0188
     28 C         138.1352  144.1074  155.6187 C.3     1  UNL1        0.0188
     29 C         139.0672  143.3019  156.4746 C.3     1  UNL1        0.0721
@<TRIPOS>BOND
     1     7     8    1
     2     8     9   ar
     3     9    10   ar
     4    10    11   ar
     5    11    12   ar
     6    12    13   ar
     7    13    14   ar
     8    14    15   ar
     9    15    16   ar
    10    16    17    2
    11    16    18   ar
    12    18     1    1
    13     1     2   ar
    14     2     3   ar
    15     3     4   ar
    16     4    19    1
    17    19    20    1
    18    20    21    1
    19    21    22    1
    20    22    23    1
    21    23    25    1
    22    25    26    1
    23    26    27    1
    24    27    28    1
    25    28    29    1
    26    23    24    1
    27     4     5   ar
    28     5     6   ar
    29    18     8   ar
    30     6     1   ar
    31    15    10   ar
    32    24    20    1
    33    29    25    1
@<TRIPOS>MOLECULE
*****
 29 33 0 0 0
SMALL
GASTEIGER

@<TRIPOS>ATOM
      1 C         141.0470  140.7464  159.9729 C.ar    1  UNL1        0.0681
      2 C         142.1228  141.3237  159.1014 C.ar    1  UNL1        0.0208
      3 C         142.9137  140.4288  158.1940 C.ar    1  UNL1        0.0384
      4 C         142.6289  138.9565  158.1580 C.ar    1  UNL1        0.1385
      5 C         141.5532  138.3792  159.0295 C.ar    1  UNL1        0.0384
      6 C         140.7622  139.2742  159.9369 C.ar    1  UNL1        0.0208
      7 C         138.5076  142.0086  158.9940 C.3     1  UNL1        0.0723
      8 C         138.9863  142.2725  160.3909 C.ar    1  UNL1        0.1268
      9 N         138.1954  143.1675  161.2983 N.ar    1  UNL1       -0.2318
     10 C         138.6742  143.4314  162.6951 C.ar    1  UNL1        0.0872
     11 C         137.8832  144.3264  163.6025 C.ar    1  UNL1        0.0193
     12 C         138.3620  144.5903  164.9993 C.ar    1  UNL1        0.0015
     13 C         139.6317  143.9592  165.4887 C.ar    1  UNL1        0.0003
     14 C         140.4227  143.0643  164.5814 C.ar    1  UNL1        0.0063
     15 C         139.9439  142.8004  163.1846 C.ar    1  UNL1        0.0742
     16 C         140.7349  141.9053  162.2771 C.ar    1  UNL1        0.2669
     17 O         142.0046  141.2743  162.7665 O.2     1  UNL1       -0.2665
     18 N         140.2561  141.6414  160.8803 N.ar    1  UNL1       -0.2626
     19 O         143.4199  138.0615  157.2506 O.3     1  UNL1       -0.4791
     20 C         142.7761  136.8494  156.6453 C.3     1  UNL1        0.1673
     21 C         141.6285  136.8501  155.6794 C.3     1  UNL1        0.0450
     22 C         141.3101  135.4249  155.3368 C.3     1  UNL1        0.0198
     23 C         142.2610  134.5433  156.0909 C.3     1  UNL1        0.0612
     24 C         143.1671  135.4236  156.8997 C.3     1  UNL1        0.0594
     25 N         142.2991  133.0445  156.0445 N.3     1  UNL1       -0.2738
     26 C         143.1202  132.1556  156.9308 C.3     1  UNL1        0.0721
     27 C         142.8515  130.7332  156.5378 C.3     1  UNL1        0.0188
     28 C         141.8642  130.7430  155.4085 C.3     1  UNL1        0.0188
     29 C         141.5228  132.1715  155.1036 C.3     1  UNL1        0.0721
@<TRIPOS>BOND
     1     7     8    1
     2     8     9   ar
     3     9    10   ar
     4    10    11   ar
     5    11    12   ar
     6    12    13   ar
     7    13    14   ar
     8    14    15   ar
     9    15    16   ar
    10    16    17    2
    11    16    18   ar
    12    18     1    1
    13     1     2   ar
    14     2     3   ar
    15     3     4   ar
    16     4    19    1
    17    19    20    1
    18    20    21    1
    19    21    22    1
    20    22    23    1
    21    23    25    1
    22    25    26    1
    23    26    27    1
    24    27    28    1
    25    28    29    1
    26    23    24    1
    27     4     5   ar
    28     5     6   ar
    29    18     8   ar
    30     6     1   ar
    31    15    10   ar
    32    24    20    1
    33    29    25    1
@<TRIPOS>MOLECULE
*****
 29 33 0 0 0
SMALL
GASTEIGER

@<TRIPOS>ATOM
      1 C         140.9015  139.5063  160.2207 C.ar    1  UNL1        0.0681
      2 C         142.1727  138.8108  160.6084 C.ar    1  UNL1        0.0208
      3 C         142.9704  138.0744  159.5734 C.ar    1  UNL1        0.0384
      4 C         142.4970  138.0334  158.1507 C.ar    1  UNL1        0.1385
      5 C         141.2258  138.7290  157.7630 C.ar    1  UNL1        0.0384
      6 C         140.4281  139.4654  158.7980 C.ar    1  UNL1        0.0208
      7 C         138.8339  138.0517  161.8359 C.3     1  UNL1        0.0723
      8 C         139.0699  139.5155  162.0634 C.ar    1  UNL1        0.1268
      9 N         138.2722  140.2519  163.0984 N.ar    1  UNL1       -0.2318
     10 C         138.5083  141.7157  163.3258 C.ar    1  UNL1        0.0872
     11 C         137.7105  142.4521  164.3608 C.ar    1  UNL1        0.0193
     12 C         137.9466  143.9158  164.5882 C.ar    1  UNL1        0.0015
     13 C         138.9804  144.6431  163.7806 C.ar    1  UNL1        0.0003
     14 C         139.7781  143.9067  162.7456 C.ar    1  UNL1        0.0063
     15 C         139.5421  142.4430  162.5182 C.ar    1  UNL1        0.0742
     16 C         140.3398  141.7065  161.4831 C.ar    1  UNL1        0.2669
     17 O         141.3736  142.4338  160.6755 O.2     1  UNL1       -0.2665
     18 N         140.1038  140.2428  161.2557 N.ar    1  UNL1       -0.2626
     19 O         143.2947  137.2970  157.1157 O.3     1  UNL1       -0.4791
     20 C         142.8978  135.9082  156.7110 C.3     1  UNL1        0.1673
     21 C         141.7741  135.5467  155.7856 C.3     1  UNL1        0.0450
     22 C         141.7367  134.0521  155.6634 C.3     1  UNL1        0.0198
     23 C         142.8374  133.4899  156.5133 C.3     1  UNL1        0.0612
     24 C         143.5551  134.6370  157.1608 C.3     1  UNL1        0.0594
     25 N         143.1633  132.0359  156.6855 N.3     1  UNL1       -0.2738
     26 C         142.4414  130.8885  156.0435 C.3     1  UNL1        0.0721
     27 C         143.1002  129.6175  156.4911 C.3     1  UNL1        0.0188
     28 C         144.2293  129.9794  157.4099 C.3     1  UNL1        0.0188
     29 C         144.2683  131.4740  157.5301 C.3     1  UNL1        0.0721
@<TRIPOS>BOND
     1     7     8    1
     2     8     9   ar
     3     9    10   ar
     4    10    11   ar
     5    11    12   ar
     6    12    13   ar
     7    13    14   ar
     8    14    15   ar
     9    15    16   ar
    10    16    17    2
    11    16    18   ar
    12    18     1    1
    13     1     2   ar
    14     2     3   ar
    15     3     4   ar
    16     4    19    1
    17    19    20    1
    18    20    21    1
    19    21    22    1
    20    22    23    1
    21    23    25    1
    22    25    26    1
    23    26    27    1
    24    27    28    1
    25    28    29    1
    26    23    24    1
    27     4     5   ar
    28     5     6   ar
    29    18     8   ar
    30     6     1   ar
    31    15    10   ar
    32    24    20    1
    33    29    25    1
