@<TRIPOS>MOLECULE
*****
 33 37 0 0 0
SMALL
GASTEIGER

@<TRIPOS>ATOM
      1 C         141.2030  138.9489  161.2706 C.ar    1  UNL1        0.0790
      2 C         140.5441  138.4629  160.0138 C.ar    1  UNL1        0.0365
      3 C         141.5250  138.6115  158.8887 C.ar    1  UNL1        0.0962
      4 N         142.7902  139.1894  159.4502 N.ar    1  UNL1       -0.1723
      5 N         142.5912  139.3979  160.9223 N.ar    1  UNL1       -0.2531
      6 C         139.3420  139.0433  165.3667 C.ar    1  UNL1       -0.0225
      7 C         139.6344  140.3259  164.6460 C.ar    1  UNL1       -0.0042
      8 C         140.2548  140.2944  163.2806 C.ar    1  UNL1        0.0012
      9 C         140.5827  138.9803  162.6360 C.ar    1  UNL1        0.0173
     10 C         140.2903  137.6978  163.3566 C.ar    1  UNL1        0.0012
     11 C         139.6699  137.7292  164.7220 C.ar    1  UNL1       -0.0042
     12 C         137.4924  138.2636  167.0162 C.3     1  UNL1        0.0047
     13 C         138.7217  139.0747  166.7320 C.3     1  UNL1        0.0224
     14 C         139.3307  139.9173  167.8133 C.3     1  UNL1        0.0047
     15 C         143.6028  139.9572  161.8782 C.3     1  UNL1        0.1052
     16 C         144.0099  139.1670  163.0866 C.3     1  UNL1        0.0244
     17 C         145.0216  139.7263  164.0425 C.3     1  UNL1        0.0020
     18 C         145.6261  141.0757  163.7902 C.3     1  UNL1        0.0001
     19 C         145.2190  141.8658  162.5819 C.3     1  UNL1        0.0020
     20 C         144.2074  141.3065  161.6259 C.3     1  UNL1        0.0244
     21 C         141.2831  138.2464  157.4541 C.3     1  UNL1        0.1206
     22 N         141.7770  136.9344  156.9206 N.3     1  UNL1       -0.2646
     23 C         142.9539  136.2596  157.5607 C.3     1  UNL1        0.0941
     24 C         143.4478  134.9476  157.0273 C.3     1  UNL1        0.1095
     25 N         142.7647  134.3103  155.8537 N.pl3   1  UNL1       -0.2904
     26 C         141.5879  134.9849  155.2136 C.3     1  UNL1        0.1095
     27 C         141.0940  136.2970  155.7471 C.3     1  UNL1        0.0941
     28 C         143.2586  132.9981  155.3202 C.ar    1  UNL1        0.1318
     29 C         144.2445  132.1903  156.1110 C.ar    1  UNL1        0.0343
     30 C         144.7384  130.8782  155.5775 C.ar    1  UNL1        0.0045
     31 C         144.2464  130.3740  154.2533 C.ar    1  UNL1        0.0208
     32 C         143.2605  131.1819  153.4625 C.ar    1  UNL1        0.1003
     33 N         142.7666  132.4939  153.9960 N.ar    1  UNL1       -0.2292
@<TRIPOS>BOND
     1    12    13    1
     2    13    14    1
     3    13     6    1
     4     6     7   ar
     5     7     8   ar
     6     8     9   ar
     7     9     1    1
     8     1     2   ar
     9     2     3   ar
    10     3    21    1
    11    21    22    1
    12    22    23    1
    13    23    24    1
    14    24    25    1
    15    25    28    1
    16    28    29   ar
    17    29    30   ar
    18    30    31   ar
    19    31    32   ar
    20    32    33   ar
    21    25    26    1
    22    26    27    1
    23     3     4   ar
    24     4     5   ar
    25     5    15    1
    26    15    16    1
    27    16    17    1
    28    17    18    1
    29    18    19    1
    30    19    20    1
    31     9    10   ar
    32    10    11   ar
    33    11     6   ar
    34     5     1   ar
    35    20    15    1
    36    27    22    1
    37    33    28   ar
@<TRIPOS>MOLECULE
*****
 33 37 0 0 0
SMALL
GASTEIGER

@<TRIPOS>ATOM
      1 C         141.9646  138.6309  160.9388 C.ar    1  UNL1        0.0790
      2 C         141.5685  138.0411  159.6178 C.ar    1  UNL1        0.0365
      3 C         142.6644  138.3284  158.6346 C.ar    1  UNL1        0.0962
      4 N         143.7377  139.0958  159.3480 N.ar    1  UNL1       -0.1723
      5 N         143.3052  139.2828  160.7721 N.ar    1  UNL1       -0.2531
      6 C         139.5541  138.4728  164.7355 C.ar    1  UNL1       -0.0225
      7 C         139.4573  139.6684  163.8349 C.ar    1  UNL1       -0.0042
      8 C         140.2608  139.7211  162.5694 C.ar    1  UNL1        0.0012
      9 C         141.1611  138.5782  162.2044 C.ar    1  UNL1        0.0173
     10 C         141.2578  137.3826  163.1049 C.ar    1  UNL1        0.0012
     11 C         140.4543  137.3299  164.3705 C.ar    1  UNL1       -0.0042
     12 C         137.8854  137.2296  166.2911 C.3     1  UNL1        0.0047
     13 C         138.7506  138.4200  166.0010 C.3     1  UNL1        0.0224
     14 C         138.8123  139.5578  166.9765 C.3     1  UNL1        0.0047
     15 C         144.0777  139.9964  161.8417 C.3     1  UNL1        0.1052
     16 C         144.4051  139.2936  163.1259 C.3     1  UNL1        0.0244
     17 C         145.1777  140.0072  164.1955 C.3     1  UNL1        0.0020
     18 C         145.6228  141.4235  163.9809 C.3     1  UNL1        0.0001
     19 C         145.2955  142.1261  162.6968 C.3     1  UNL1        0.0020
     20 C         144.5229  141.4125  161.6272 C.3     1  UNL1        0.0244
     21 C         142.6835  137.9199  157.1914 C.3     1  UNL1        0.1206
     22 N         142.5041  136.4784  156.8175 N.3     1  UNL1       -0.2646
     23 C         141.5296  136.0981  155.7425 C.3     1  UNL1        0.0941
     24 C         141.3502  134.6566  155.3686 C.3     1  UNL1        0.1095
     25 N         142.1453  133.5954  156.0697 N.pl3   1  UNL1       -0.2904
     26 C         143.1198  133.9756  157.1447 C.3     1  UNL1        0.1095
     27 C         143.2992  135.4172  157.5187 C.3     1  UNL1        0.0941
     28 C         141.9659  132.1538  155.6959 C.ar    1  UNL1        0.1318
     29 C         140.8776  131.7558  154.7434 C.ar    1  UNL1        0.0343
     30 C         140.6982  130.3143  154.3695 C.ar    1  UNL1        0.0045
     31 C         141.6071  129.2707  154.9480 C.ar    1  UNL1        0.0208
     32 C         142.6954  129.6687  155.9005 C.ar    1  UNL1        0.1003
     33 N         142.8748  131.1102  156.2744 N.ar    1  UNL1       -0.2292
@<TRIPOS>BOND
     1    12    13    1
     2    13    14    1
     3    13     6    1
     4     6     7   ar
     5     7     8   ar
     6     8     9   ar
     7     9     1    1
     8     1     2   ar
     9     2     3   ar
    10     3    21    1
    11    21    22    1
    12    22    23    1
    13    23    24    1
    14    24    25    1
    15    25    28    1
    16    28    29   ar
    17    29    30   ar
    18    30    31   ar
    19    31    32   ar
    20    32    33   ar
    21    25    26    1
    22    26    27    1
    23     3     4   ar
    24     4     5   ar
    25     5    15    1
    26    15    16    1
    27    16    17    1
    28    17    18    1
    29    18    19    1
    30    19    20    1
    31     9    10   ar
    32    10    11   ar
    33    11     6   ar
    34     5     1   ar
    35    20    15    1
    36    27    22    1
    37    33    28   ar
@<TRIPOS>MOLECULE
*****
 33 37 0 0 0
SMALL
GASTEIGER

@<TRIPOS>ATOM
      1 C         142.5686  141.5271  163.8382 C.ar    1  UNL1        0.0790
      2 C         143.6278  141.1167  162.8586 C.ar    1  UNL1        0.0365
      3 C         143.2447  141.6514  161.5105 C.ar    1  UNL1        0.0962
      4 N         141.9487  142.3923  161.6570 N.ar    1  UNL1       -0.1723
      5 N         141.5309  142.3155  163.0955 N.ar    1  UNL1       -0.2531
      6 C         142.5138  140.5626  168.2333 C.ar    1  UNL1       -0.0225
      7 C         142.1667  139.5041  167.2288 C.ar    1  UNL1       -0.0042
      8 C         142.1850  139.8256  165.7638 C.ar    1  UNL1        0.0012
      9 C         142.5504  141.2056  165.3032 C.ar    1  UNL1        0.0173
     10 C         142.8975  142.2641  166.3078 C.ar    1  UNL1        0.0012
     11 C         142.8792  141.9426  167.7728 C.ar    1  UNL1       -0.0042
     12 C         142.6822  138.8256  170.1579 C.3     1  UNL1        0.0047
     13 C         142.4956  140.2411  169.6983 C.3     1  UNL1        0.0224
     14 C         142.2908  141.3352  170.7038 C.3     1  UNL1        0.0047
     15 C         140.2926  142.9207  163.6875 C.3     1  UNL1        0.1052
     16 C         140.3606  144.2590  164.3619 C.3     1  UNL1        0.0244
     17 C         139.1224  144.8643  164.9538 C.3     1  UNL1        0.0020
     18 C         137.8162  144.1314  164.8715 C.3     1  UNL1        0.0001
     19 C         137.7482  142.7933  164.1972 C.3     1  UNL1        0.0020
     20 C         138.9865  142.1880  163.6052 C.3     1  UNL1        0.0244
     21 C         144.0213  141.4760  160.2392 C.3     1  UNL1        0.1206
     22 N         143.6603  140.3759  159.2856 N.3     1  UNL1       -0.2646
     23 C         143.1387  139.0705  159.8092 C.3     1  UNL1        0.0941
     24 C         142.7777  137.9704  158.8556 C.3     1  UNL1        0.1095
     25 N         142.9383  138.1757  157.3784 N.pl3   1  UNL1       -0.2904
     26 C         143.4597  139.4809  156.8548 C.3     1  UNL1        0.1095
     27 C         143.8208  140.5811  157.8084 C.3     1  UNL1        0.0941
     28 C         142.5772  137.0755  156.4247 C.ar    1  UNL1        0.1318
     29 C         143.6561  136.2480  155.7912 C.ar    1  UNL1        0.0343
     30 C         143.2952  135.1479  154.8376 C.ar    1  UNL1        0.0045
     31 C         141.8554  134.8753  154.5173 C.ar    1  UNL1        0.0208
     32 C         140.7765  135.7028  155.1508 C.ar    1  UNL1        0.1003
     33 N         141.1375  136.8029  156.1045 N.ar    1  UNL1       -0.2292
@<TRIPOS>BOND
     1    12    13    1
     2    13    14    1
     3    13     6    1
     4     6     7   ar
     5     7     8   ar
     6     8     9   ar
     7     9     1    1
     8     1     2   ar
     9     2     3   ar
    10     3    21    1
    11    21    22    1
    12    22    23    1
    13    23    24    1
    14    24    25    1
    15    25    28    1
    16    28    29   ar
    17    29    30   ar
    18    30    31   ar
    19    31    32   ar
    20    32    33   ar
    21    25    26    1
    22    26    27    1
    23     3     4   ar
    24     4     5   ar
    25     5    15    1
    26    15    16    1
    27    16    17    1
    28    17    18    1
    29    18    19    1
    30    19    20    1
    31     9    10   ar
    32    10    11   ar
    33    11     6   ar
    34     5     1   ar
    35    20    15    1
    36    27    22    1
    37    33    28   ar
@<TRIPOS>MOLECULE
*****
 33 37 0 0 0
SMALL
GASTEIGER

@<TRIPOS>ATOM
      1 C         142.6968  139.5157  160.3279 C.ar    1  UNL1        0.0790
      2 C         143.2186  139.4003  158.9263 C.ar    1  UNL1        0.0365
      3 C         142.6520  138.1497  158.3222 C.ar    1  UNL1        0.0962
      4 N         141.7800  137.4921  159.3504 N.ar    1  UNL1       -0.1723
      5 N         141.8077  138.3364  160.5900 N.ar    1  UNL1       -0.2531
      6 C         143.6343  142.8196  163.2356 C.ar    1  UNL1       -0.0225
      7 C         142.2411  142.6628  162.7023 C.ar    1  UNL1       -0.0042
      8 C         141.9286  141.5614  161.7331 C.ar    1  UNL1        0.0012
      9 C         143.0093  140.6170  161.2971 C.ar    1  UNL1        0.0173
     10 C         144.4025  140.7739  161.8304 C.ar    1  UNL1        0.0012
     11 C         144.7149  141.8752  162.7997 C.ar    1  UNL1       -0.0042
     12 C         143.5851  145.3381  163.8720 C.3     1  UNL1        0.0047
     13 C         143.9467  143.9210  164.2049 C.3     1  UNL1        0.0224
     14 C         144.6209  143.6051  165.5071 C.3     1  UNL1        0.0047
     15 C         141.0750  138.0513  161.8674 C.3     1  UNL1        0.1052
     16 C         139.5799  138.1645  161.9158 C.3     1  UNL1        0.0244
     17 C         138.8472  137.8794  163.1932 C.3     1  UNL1        0.0020
     18 C         139.6093  137.4812  164.4223 C.3     1  UNL1        0.0001
     19 C         141.1043  137.3681  164.3739 C.3     1  UNL1        0.0020
     20 C         141.8370  137.6532  163.0964 C.3     1  UNL1        0.0244
     21 C         142.9117  137.6452  156.9337 C.3     1  UNL1        0.1206
     22 N         142.6277  136.2128  156.5908 N.3     1  UNL1       -0.2646
     23 C         141.5509  135.8777  155.6017 C.3     1  UNL1        0.0941
     24 C         141.2669  134.4453  155.2588 C.3     1  UNL1        0.1095
     25 N         142.0596  133.3481  155.9050 N.pl3   1  UNL1       -0.2904
     26 C         143.1363  133.6831  156.8940 C.3     1  UNL1        0.1095
     27 C         143.4204  135.1156  157.2370 C.3     1  UNL1        0.0941
     28 C         141.7756  131.9156  155.5621 C.ar    1  UNL1        0.1318
     29 C         140.6586  131.5773  154.6197 C.ar    1  UNL1        0.0343
     30 C         140.3746  130.1449  154.2768 C.ar    1  UNL1        0.0045
     31 C         141.2074  129.0509  154.8762 C.ar    1  UNL1        0.0208
     32 C         142.3244  129.3892  155.8186 C.ar    1  UNL1        0.1003
     33 N         142.6084  130.8216  156.1615 N.ar    1  UNL1       -0.2292
@<TRIPOS>BOND
     1    12    13    1
     2    13    14    1
     3    13     6    1
     4     6     7   ar
     5     7     8   ar
     6     8     9   ar
     7     9     1    1
     8     1     2   ar
     9     2     3   ar
    10     3    21    1
    11    21    22    1
    12    22    23    1
    13    23    24    1
    14    24    25    1
    15    25    28    1
    16    28    29   ar
    17    29    30   ar
    18    30    31   ar
    19    31    32   ar
    20    32    33   ar
    21    25    26    1
    22    26    27    1
    23     3     4   ar
    24     4     5   ar
    25     5    15    1
    26    15    16    1
    27    16    17    1
    28    17    18    1
    29    18    19    1
    30    19    20    1
    31     9    10   ar
    32    10    11   ar
    33    11     6   ar
    34     5     1   ar
    35    20    15    1
    36    27    22    1
    37    33    28   ar
@<TRIPOS>MOLECULE
*****
 33 37 0 0 0
SMALL
GASTEIGER

@<TRIPOS>ATOM
      1 C         142.1832  138.2989  160.5996 C.ar    1  UNL1        0.0790
      2 C         142.9920  137.5550  159.5785 C.ar    1  UNL1        0.0365
      3 C         142.3593  137.7747  158.2363 C.ar    1  UNL1        0.0962
      4 N         141.1596  138.6545  158.4278 N.ar    1  UNL1       -0.1723
      5 N         141.0507  138.9784  159.8884 N.ar    1  UNL1       -0.2531
      6 C         143.0094  138.4634  165.0200 C.ar    1  UNL1       -0.0225
      7 C         143.8803  139.2251  164.0654 C.ar    1  UNL1       -0.0042
      8 C         143.6049  139.1703  162.5919 C.ar    1  UNL1        0.0012
      9 C         142.4586  138.3538  162.0730 C.ar    1  UNL1        0.0173
     10 C         141.5877  137.5921  163.0276 C.ar    1  UNL1        0.0012
     11 C         141.8631  137.6469  164.5011 C.ar    1  UNL1       -0.0042
     12 C         144.2023  137.5123  167.1229 C.3     1  UNL1        0.0047
     13 C         143.2847  138.5182  166.4935 C.3     1  UNL1        0.0224
     14 C         142.6426  139.5789  167.3376 C.3     1  UNL1        0.0047
     15 C         139.9948  139.8320  160.5258 C.3     1  UNL1        0.1052
     16 C         140.1050  141.3271  160.4714 C.3     1  UNL1        0.0244
     17 C         139.0491  142.1807  161.1089 C.3     1  UNL1        0.0020
     18 C         137.8829  141.5393  161.8007 C.3     1  UNL1        0.0001
     19 C         137.7726  140.0444  161.8550 C.3     1  UNL1        0.0020
     20 C         138.8286  139.1908  161.2176 C.3     1  UNL1        0.0244
     21 C         142.8418  137.2133  156.9317 C.3     1  UNL1        0.1206
     22 N         142.5598  135.7824  156.5809 N.3     1  UNL1       -0.2646
     23 C         141.5330  135.4543  155.5378 C.3     1  UNL1        0.0941
     24 C         141.2510  134.0234  155.1870 C.3     1  UNL1        0.1095
     25 N         141.9958  132.9207  155.8794 N.pl3   1  UNL1       -0.2904
     26 C         143.0225  133.2488  156.9224 C.3     1  UNL1        0.1095
     27 C         143.3046  134.6797  157.2733 C.3     1  UNL1        0.0941
     28 C         141.7139  131.4897  155.5286 C.ar    1  UNL1        0.1318
     29 C         140.5641  131.1512  154.6267 C.ar    1  UNL1        0.0343
     30 C         140.2821  129.7203  154.2759 C.ar    1  UNL1        0.0045
     31 C         141.1498  128.6280  154.8270 C.ar    1  UNL1        0.0208
     32 C         142.2996  128.9665  155.7289 C.ar    1  UNL1        0.1003
     33 N         142.5816  130.3974  156.0797 N.ar    1  UNL1       -0.2292
@<TRIPOS>BOND
     1    12    13    1
     2    13    14    1
     3    13     6    1
     4     6     7   ar
     5     7     8   ar
     6     8     9   ar
     7     9     1    1
     8     1     2   ar
     9     2     3   ar
    10     3    21    1
    11    21    22    1
    12    22    23    1
    13    23    24    1
    14    24    25    1
    15    25    28    1
    16    28    29   ar
    17    29    30   ar
    18    30    31   ar
    19    31    32   ar
    20    32    33   ar
    21    25    26    1
    22    26    27    1
    23     3     4   ar
    24     4     5   ar
    25     5    15    1
    26    15    16    1
    27    16    17    1
    28    17    18    1
    29    18    19    1
    30    19    20    1
    31     9    10   ar
    32    10    11   ar
    33    11     6   ar
    34     5     1   ar
    35    20    15    1
    36    27    22    1
    37    33    28   ar
@<TRIPOS>MOLECULE
*****
 33 37 0 0 0
SMALL
GASTEIGER

@<TRIPOS>ATOM
      1 C         140.5362  140.7359  161.3752 C.ar    1  UNL1        0.0790
      2 C         140.2570  139.9422  160.1334 C.ar    1  UNL1        0.0365
      3 C         140.8947  140.6522  158.9761 C.ar    1  UNL1        0.0962
      4 N         141.5682  141.8848  159.5027 N.ar    1  UNL1       -0.1723
      5 N         141.3466  141.9365  160.9854 N.ar    1  UNL1       -0.2531
      6 C         139.1809  139.6977  165.5387 C.ar    1  UNL1       -0.0225
      7 C         138.2886  140.4984  164.6373 C.ar    1  UNL1       -0.0042
      8 C         138.7404  140.8445  163.2494 C.ar    1  UNL1        0.0012
      9 C         140.0844  140.3898  162.7630 C.ar    1  UNL1        0.0173
     10 C         140.9768  139.5891  163.6644 C.ar    1  UNL1        0.0012
     11 C         140.5250  139.2430  165.0522 C.ar    1  UNL1       -0.0042
     12 C         137.5692  138.4221  167.1278 C.3     1  UNL1        0.0047
     13 C         138.7291  139.3516  166.9265 C.3     1  UNL1        0.0224
     14 C         139.4373  139.9350  168.1132 C.3     1  UNL1        0.0047
     15 C         141.8475  143.0018  161.9150 C.3     1  UNL1        0.1052
     16 C         143.3181  143.1362  162.1789 C.3     1  UNL1        0.0244
     17 C         143.8189  144.2015  163.1085 C.3     1  UNL1        0.0020
     18 C         142.8494  145.1324  163.7744 C.3     1  UNL1        0.0001
     19 C         141.3789  144.9979  163.5106 C.3     1  UNL1        0.0020
     20 C         140.8780  143.9326  162.5809 C.3     1  UNL1        0.0244
     21 C         140.8644  140.2077  157.5439 C.3     1  UNL1        0.1206
     22 N         141.2535  138.8040  157.1858 N.3     1  UNL1       -0.2646
     23 C         140.4053  138.0092  156.2378 C.3     1  UNL1        0.0941
     24 C         140.7945  136.6055  155.8797 C.3     1  UNL1        0.1095
     25 N         142.0319  135.9967  156.4698 N.pl3   1  UNL1       -0.2904
     26 C         142.8801  136.7913  157.4178 C.3     1  UNL1        0.1095
     27 C         142.4909  138.1952  157.7759 C.3     1  UNL1        0.0941
     28 C         142.4211  134.5929  156.1118 C.ar    1  UNL1        0.1318
     29 C         141.4379  133.6951  155.4207 C.ar    1  UNL1        0.0343
     30 C         141.8271  132.2914  155.0627 C.ar    1  UNL1        0.0045
     31 C         143.1993  131.7855  155.3957 C.ar    1  UNL1        0.0208
     32 C         144.1824  132.6832  156.0867 C.ar    1  UNL1        0.1003
     33 N         143.7933  134.0869  156.4448 N.ar    1  UNL1       -0.2292
@<TRIPOS>BOND
     1    12    13    1
     2    13    14    1
     3    13     6    1
     4     6     7   ar
     5     7     8   ar
     6     8     9   ar
     7     9     1    1
     8     1     2   ar
     9     2     3   ar
    10     3    21    1
    11    21    22    1
    12    22    23    1
    13    23    24    1
    14    24    25    1
    15    25    28    1
    16    28    29   ar
    17    29    30   ar
    18    30    31   ar
    19    31    32   ar
    20    32    33   ar
    21    25    26    1
    22    26    27    1
    23     3     4   ar
    24     4     5   ar
    25     5    15    1
    26    15    16    1
    27    16    17    1
    28    17    18    1
    29    18    19    1
    30    19    20    1
    31     9    10   ar
    32    10    11   ar
    33    11     6   ar
    34     5     1   ar
    35    20    15    1
    36    27    22    1
    37    33    28   ar
@<TRIPOS>MOLECULE
*****
 33 37 0 0 0
SMALL
GASTEIGER

@<TRIPOS>ATOM
      1 C         142.3226  139.7619  163.4963 C.ar    1  UNL1        0.0790
      2 C         142.4473  138.5189  162.6659 C.ar    1  UNL1        0.0365
      3 C         142.9015  138.9214  161.2942 C.ar    1  UNL1        0.0962
      4 N         143.0577  140.4132  161.2768 N.ar    1  UNL1       -0.1723
      5 N         142.6999  140.9326  162.6378 N.ar    1  UNL1       -0.2531
      6 C         141.0419  139.9462  167.8063 C.ar    1  UNL1       -0.0225
      7 C         140.0300  140.1312  166.7146 C.ar    1  UNL1       -0.0042
      8 C         140.4569  140.0697  165.2779 C.ar    1  UNL1        0.0012
      9 C         141.8957  139.8233  164.9330 C.ar    1  UNL1        0.0173
     10 C         142.9076  139.6383  166.0246 C.ar    1  UNL1        0.0012
     11 C         142.4807  139.6997  167.4613 C.ar    1  UNL1       -0.0042
     12 C         139.2268  140.4539  169.5944 C.3     1  UNL1        0.0047
     13 C         140.6150  140.0076  169.2429 C.3     1  UNL1        0.0224
     14 C         141.5763  139.6227  170.3281 C.3     1  UNL1        0.0047
     15 C         142.7164  142.3703  163.0652 C.3     1  UNL1        0.1052
     16 C         141.5338  143.2496  162.7853 C.3     1  UNL1        0.0244
     17 C         141.5503  144.6874  163.2126 C.3     1  UNL1        0.0020
     18 C         142.7495  145.2458  163.9199 C.3     1  UNL1        0.0001
     19 C         143.9320  144.3665  164.1998 C.3     1  UNL1        0.0020
     20 C         143.9155  142.9288  163.7724 C.3     1  UNL1        0.0244
     21 C         143.1552  137.9949  160.1422 C.3     1  UNL1        0.1206
     22 N         142.1982  137.9540  158.9879 N.3     1  UNL1       -0.2646
     23 C         140.8131  138.5090  159.1419 C.3     1  UNL1        0.0941
     24 C         139.8561  138.4682  157.9876 C.3     1  UNL1        0.1095
     25 N         140.2842  137.8724  156.6792 N.pl3   1  UNL1       -0.2904
     26 C         141.6691  137.3174  156.5251 C.3     1  UNL1        0.1095
     27 C         142.6262  137.3582  157.6795 C.3     1  UNL1        0.0941
     28 C         139.3271  137.8315  155.5248 C.ar    1  UNL1        0.1318
     29 C         139.6217  136.9645  154.3368 C.ar    1  UNL1        0.0343
     30 C         138.6648  136.9236  153.1824 C.ar    1  UNL1        0.0045
     31 C         137.4133  137.7496  153.2161 C.ar    1  UNL1        0.0208
     32 C         137.1187  138.6167  154.4041 C.ar    1  UNL1        0.1003
     33 N         138.0756  138.6576  155.5585 N.ar    1  UNL1       -0.2292
@<TRIPOS>BOND
     1    12    13    1
     2    13    14    1
     3    13     6    1
     4     6     7   ar
     5     7     8   ar
     6     8     9   ar
     7     9     1    1
     8     1     2   ar
     9     2     3   ar
    10     3    21    1
    11    21    22    1
    12    22    23    1
    13    23    24    1
    14    24    25    1
    15    25    28    1
    16    28    29   ar
    17    29    30   ar
    18    30    31   ar
    19    31    32   ar
    20    32    33   ar
    21    25    26    1
    22    26    27    1
    23     3     4   ar
    24     4     5   ar
    25     5    15    1
    26    15    16    1
    27    16    17    1
    28    17    18    1
    29    18    19    1
    30    19    20    1
    31     9    10   ar
    32    10    11   ar
    33    11     6   ar
    34     5     1   ar
    35    20    15    1
    36    27    22    1
    37    33    28   ar
@<TRIPOS>MOLECULE
*****
 33 37 0 0 0
SMALL
GASTEIGER

@<TRIPOS>ATOM
      1 C         142.3673  139.7873  164.0281 C.ar    1  UNL1        0.0790
      2 C         142.2608  138.5511  163.1851 C.ar    1  UNL1        0.0365
      3 C         142.8614  138.8516  161.8438 C.ar    1  UNL1        0.0962
      4 N         143.3390  140.2734  161.8578 N.ar    1  UNL1       -0.1723
      5 N         143.0337  140.8517  163.2077 N.ar    1  UNL1       -0.2531
      6 C         140.9386  140.2255  168.2727 C.ar    1  UNL1       -0.0225
      7 C         140.0763  140.6952  167.1388 C.ar    1  UNL1       -0.0042
      8 C         140.5525  140.5492  165.7239 C.ar    1  UNL1        0.0012
      9 C         141.8911  139.9334  165.4429 C.ar    1  UNL1        0.0173
     10 C         142.7534  139.4636  166.5768 C.ar    1  UNL1        0.0012
     11 C         142.2771  139.6097  167.9917 C.ar    1  UNL1       -0.0042
     12 C         138.9956  140.3094  169.9954 C.3     1  UNL1        0.0047
     13 C         140.4623  140.3716  169.6875 C.3     1  UNL1        0.0224
     14 C         141.4528  140.5798  170.7946 C.3     1  UNL1        0.0047
     15 C         143.3408  142.2491  163.6582 C.3     1  UNL1        0.1052
     16 C         144.2602  142.4772  164.8214 C.3     1  UNL1        0.0244
     17 C         144.5673  143.8746  165.2719 C.3     1  UNL1        0.0020
     18 C         143.9550  145.0439  164.5593 C.3     1  UNL1        0.0001
     19 C         143.0357  144.8159  163.3962 C.3     1  UNL1        0.0020
     20 C         142.7286  143.4185  162.9457 C.3     1  UNL1        0.0244
     21 C         142.9659  137.8976  160.6910 C.3     1  UNL1        0.1206
     22 N         142.0551  138.0474  159.5086 N.3     1  UNL1       -0.2646
     23 C         142.5039  137.5878  158.1531 C.3     1  UNL1        0.0941
     24 C         141.5930  137.7376  156.9708 C.3     1  UNL1        0.1095
     25 N         140.2334  138.3470  157.1440 N.pl3   1  UNL1       -0.2904
     26 C         139.7846  138.8066  158.4994 C.3     1  UNL1        0.1095
     27 C         140.6954  138.6568  159.6818 C.3     1  UNL1        0.0941
     28 C         139.3225  138.4968  155.9616 C.ar    1  UNL1        0.1318
     29 C         139.1719  139.8323  155.2953 C.ar    1  UNL1        0.0343
     30 C         138.2611  139.9821  154.1130 C.ar    1  UNL1        0.0045
     31 C         137.5008  138.7966  153.5970 C.ar    1  UNL1        0.0208
     32 C         137.6513  137.4611  154.2633 C.ar    1  UNL1        0.1003
     33 N         138.5622  137.3113  155.4456 N.ar    1  UNL1       -0.2292
@<TRIPOS>BOND
     1    12    13    1
     2    13    14    1
     3    13     6    1
     4     6     7   ar
     5     7     8   ar
     6     8     9   ar
     7     9     1    1
     8     1     2   ar
     9     2     3   ar
    10     3    21    1
    11    21    22    1
    12    22    23    1
    13    23    24    1
    14    24    25    1
    15    25    28    1
    16    28    29   ar
    17    29    30   ar
    18    30    31   ar
    19    31    32   ar
    20    32    33   ar
    21    25    26    1
    22    26    27    1
    23     3     4   ar
    24     4     5   ar
    25     5    15    1
    26    15    16    1
    27    16    17    1
    28    17    18    1
    29    18    19    1
    30    19    20    1
    31     9    10   ar
    32    10    11   ar
    33    11     6   ar
    34     5     1   ar
    35    20    15    1
    36    27    22    1
    37    33    28   ar
@<TRIPOS>MOLECULE
*****
 33 37 0 0 0
SMALL
GASTEIGER

@<TRIPOS>ATOM
      1 C         139.9443  141.2172  163.8620 C.ar    1  UNL1        0.0790
      2 C         138.7488  141.4628  162.9899 C.ar    1  UNL1        0.0365
      3 C         139.1758  141.2994  161.5613 C.ar    1  UNL1        0.0962
      4 N         140.6351  140.9527  161.5504 N.ar    1  UNL1       -0.1723
      5 N         141.1101  140.9019  162.9723 N.ar    1  UNL1       -0.2531
      6 C         140.0199  141.3948  168.3579 C.ar    1  UNL1       -0.0225
      7 C         139.6302  140.1234  167.6640 C.ar    1  UNL1       -0.0042
      8 C         139.6050  140.0642  166.1654 C.ar    1  UNL1        0.0012
      9 C         139.9695  141.2764  165.3606 C.ar    1  UNL1        0.0173
     10 C         140.3592  142.5478  166.0545 C.ar    1  UNL1        0.0012
     11 C         140.3844  142.6071  167.5531 C.ar    1  UNL1       -0.0042
     12 C         140.2644  140.2021  170.6530 C.3     1  UNL1        0.0047
     13 C         140.0451  141.4541  169.8565 C.3     1  UNL1        0.0224
     14 C         139.8510  142.7652  170.5586 C.3     1  UNL1        0.0047
     15 C         142.5058  140.5906  163.4251 C.3     1  UNL1        0.1052
     16 C         143.6390  141.4941  163.0380 C.3     1  UNL1        0.0244
     17 C         145.0347  141.1827  163.4907 C.3     1  UNL1        0.0020
     18 C         145.2973  139.9679  164.3305 C.3     1  UNL1        0.0001
     19 C         144.1642  139.0645  164.7176 C.3     1  UNL1        0.0020
     20 C         142.7685  139.3758  164.2649 C.3     1  UNL1        0.0244
     21 C         138.2976  141.4552  160.3553 C.3     1  UNL1        0.1206
     22 N         138.6814  142.4133  159.2668 N.3     1  UNL1       -0.2646
     23 C         139.6239  143.5428  159.5598 C.3     1  UNL1        0.0941
     24 C         140.0077  144.5009  158.4713 C.3     1  UNL1        0.1095
     25 N         139.4490  144.3294  157.0899 N.pl3   1  UNL1       -0.2904
     26 C         138.5065  143.2000  156.7968 C.3     1  UNL1        0.1095
     27 C         138.1227  142.2418  157.8853 C.3     1  UNL1        0.0941
     28 C         139.8328  145.2875  156.0013 C.ar    1  UNL1        0.1318
     29 C         139.2306  146.6609  155.9643 C.ar    1  UNL1        0.0343
     30 C         139.6144  147.6190  154.8758 C.ar    1  UNL1        0.0045
     31 C         140.6002  147.2038  153.8244 C.ar    1  UNL1        0.0208
     32 C         141.2023  145.8304  153.8614 C.ar    1  UNL1        0.1003
     33 N         140.8186  144.8723  154.9499 N.ar    1  UNL1       -0.2292
@<TRIPOS>BOND
     1    12    13    1
     2    13    14    1
     3    13     6    1
     4     6     7   ar
     5     7     8   ar
     6     8     9   ar
     7     9     1    1
     8     1     2   ar
     9     2     3   ar
    10     3    21    1
    11    21    22    1
    12    22    23    1
    13    23    24    1
    14    24    25    1
    15    25    28    1
    16    28    29   ar
    17    29    30   ar
    18    30    31   ar
    19    31    32   ar
    20    32    33   ar
    21    25    26    1
    22    26    27    1
    23     3     4   ar
    24     4     5   ar
    25     5    15    1
    26    15    16    1
    27    16    17    1
    28    17    18    1
    29    18    19    1
    30    19    20    1
    31     9    10   ar
    32    10    11   ar
    33    11     6   ar
    34     5     1   ar
    35    20    15    1
    36    27    22    1
    37    33    28   ar
