@<TRIPOS>MOLECULE
*****
 39 44 0 0 0
SMALL
GASTEIGER

@<TRIPOS>ATOM
      1 C         144.2407  141.2764  161.7214 C.ar    1  UNL1        0.1801
      2 N         145.4250  142.1778  161.9078 N.ar    1  UNL1       -0.0614
      3 O         145.4303  142.6474  163.3324 O.2     1  UNL1       -0.3498
      4 C         144.2492  142.0363  164.0264 C.ar    1  UNL1        0.2065
      5 C         143.7482  142.1419  165.4362 C.ar    1  UNL1        0.1899
      6 F         144.4835  142.9892  166.4319 F       1  UNL1       -0.1996
      7 C         142.5120  141.4001  165.8505 C.ar    1  UNL1        0.0749
      8 C         141.7767  140.5528  164.8548 C.ar    1  UNL1       -0.0053
      9 C         142.2778  140.4472  163.4448 C.ar    1  UNL1        0.0032
     10 C         143.5140  141.1889  163.0306 C.ar    1  UNL1        0.0744
     11 C         140.5405  139.8111  165.2690 C.3     1  UNL1        0.0468
     12 C         140.0396  139.9167  166.6789 C.3     1  UNL1        0.1606
     13 C         139.3043  139.0693  165.6832 C.2     1  UNL1        0.2387
     14 O         139.8053  138.9637  164.2733 O.2     1  UNL1       -0.2741
     15 N         138.0681  138.3276  166.0974 N.am    1  UNL1       -0.2389
     16 C         137.5671  138.4332  167.5073 C.2     1  UNL1        0.3122
     17 O         136.3308  137.6914  167.9215 O.2     1  UNL1       -0.2520
     18 N         138.3023  139.2805  168.5030 N.am    1  UNL1       -0.2389
     19 C         139.5385  140.0223  168.0888 C.2     1  UNL1        0.2387
     20 O         139.7887  140.4120  168.7377 O.2     1  UNL1       -0.2741
     21 C         140.7748  140.7640  167.6746 C.3     1  UNL1        0.1166
     22 C         140.2738  140.8696  169.0845 C.3     1  UNL1        0.1341
     23 C         139.0376  140.1279  169.4987 C.3     1  UNL1        0.0338
     24 O         141.0090  141.7170  170.0802 O.3     1  UNL1       -0.3553
     25 C         142.2453  142.4587  169.6660 C.3     1  UNL1        0.1349
     26 C         142.9805  143.3061  170.6617 C.3     1  UNL1        0.0339
     27 C         142.7463  142.3531  168.2561 C.3     1  UNL1        0.1205
     28 N         142.0110  141.5058  167.2604 N.pl3   1  UNL1       -0.3019
     29 H         137.5855  137.7714  165.4439 H       1  UNL1        0.1591
     30 H         137.9735  139.3499  169.4284 H       1  UNL1        0.1591
     31 C         143.0878  138.8980  158.8788 C.3     1  UNL1        0.1060
     32 C         143.3565  139.1731  160.3288 C.3     1  UNL1        0.1143
     33 N         143.8514  140.5840  160.4489 N.am    1  UNL1       -0.2317
     34 C         143.8885  141.1810  159.0734 C.2     1  UNL1        0.2812
     35 O         144.3216  142.5751  158.7286 O.2     1  UNL1       -0.2623
     36 S         143.4167  140.1390  158.1030 S.3     1  UNL1       -0.0534
     37 C         142.5796  137.6086  158.3055 C.3     1  UNL1        0.1552
     38 C         143.0263  135.5138  156.8349 C.3     1  UNL1        0.1741
     39 O         143.3209  136.9424  157.1843 O.3     1  UNL1       -0.3501
@<TRIPOS>BOND
     1    38    39    1
     2    39    37    1
     3    31    37    1
     4    31    32    1
     5    32    33    1
     6    33     1    1
     7     1     2   ar
     8     2     3   ar
     9     3     4   ar
    10     4     5   ar
    11     5     6    1
    12     5     7   ar
    13     7     8   ar
    14     8     9   ar
    15     9    10   ar
    16     8    11    1
    17    11    12    1
    18    12    13    1
    19    13    14    2
    20    13    15   am
    21    15    16   am
    22    16    17    2
    23    16    18   am
    24    18    19   am
    25    19    20    2
    26    21    12    1
    27    21    22    1
    28    22    23    1
    29    22    24    1
    30    24    25    1
    31    25    26    1
    32    25    27    1
    33    27    28    1
    34    33    34   am
    35    34    35    2
    36    34    36    1
    37    36    31    1
    38    10     1   ar
    39    19    12    1
    40    28    21    1
    41    10     4   ar
    42    28     7    1
    43    15    29    1
    44    18    30    1
@<TRIPOS>MOLECULE
*****
 39 44 0 0 0
SMALL
GASTEIGER

@<TRIPOS>ATOM
      1 C         140.1189  144.1890  161.5108 C.ar    1  UNL1        0.1801
      2 N         139.2301  145.3620  161.8009 N.ar    1  UNL1       -0.0614
      3 O         139.0030  145.4161  163.2826 O.2     1  UNL1       -0.3498
      4 C         139.7515  144.2766  163.9083 C.ar    1  UNL1        0.2065
      5 C         139.8941  143.8316  165.3336 C.ar    1  UNL1        0.1899
      6 F         139.2044  144.5900  166.4287 F       1  UNL1       -0.1996
      7 C         140.7264  142.6281  165.6639 C.ar    1  UNL1        0.0749
      8 C         141.4161  141.8697  164.5688 C.ar    1  UNL1       -0.0053
      9 C         141.2734  142.3148  163.1434 C.ar    1  UNL1        0.0032
     10 C         140.4411  143.5182  162.8132 C.ar    1  UNL1        0.0744
     11 C         142.2483  140.6663  164.8991 C.3     1  UNL1        0.0468
     12 C         142.3909  140.2213  166.3244 C.3     1  UNL1        0.1606
     13 C         143.0806  139.4629  165.2293 C.2     1  UNL1        0.2387
     14 O         142.9380  139.9079  163.8040 O.2     1  UNL1       -0.2741
     15 N         143.9129  138.2595  165.5596 N.am    1  UNL1       -0.2389
     16 C         144.0555  137.8145  166.9849 C.2     1  UNL1        0.3122
     17 O         144.8878  136.6110  167.3152 O.2     1  UNL1       -0.2520
     18 N         143.3659  138.5729  168.0800 N.am    1  UNL1       -0.2389
     19 C         142.5336  139.7763  167.7498 C.2     1  UNL1        0.2387
     20 O         142.2503  140.0450  168.4448 O.2     1  UNL1       -0.2741
     21 C         141.7013  140.9797  167.4195 C.3     1  UNL1        0.1166
     22 C         141.8439  140.5347  168.8448 C.3     1  UNL1        0.1341
     23 C         142.6762  139.3313  169.1751 C.3     1  UNL1        0.0338
     24 O         141.1543  141.2931  169.9399 O.3     1  UNL1       -0.3553
     25 C         140.3220  142.4965  169.6096 C.3     1  UNL1        0.1349
     26 C         139.6323  143.2549  170.7047 C.3     1  UNL1        0.0339
     27 C         140.1793  142.9415  168.1843 C.3     1  UNL1        0.1205
     28 N         140.8690  142.1831  167.0892 N.pl3   1  UNL1       -0.3019
     29 H         144.3656  137.7617  164.8409 H       1  UNL1        0.1591
     30 H         143.4595  138.2808  169.0155 H       1  UNL1        0.1591
     31 C         142.0422  143.2994  158.2588 C.3     1  UNL1        0.1060
     32 C         142.0161  143.8262  159.6630 C.3     1  UNL1        0.1143
     33 N         140.6009  143.7618  160.1561 N.am    1  UNL1       -0.2317
     34 C         139.7523  143.1952  159.0567 C.2     1  UNL1        0.2812
     35 O         138.2728  142.9563  159.1188 O.2     1  UNL1       -0.2623
     36 S         140.6430  142.9094  157.8841 S.3     1  UNL1       -0.0534
     37 C         143.2544  143.1830  157.3831 C.3     1  UNL1        0.1552
     38 C         145.1303  141.4030  157.1332 C.3     1  UNL1        0.1741
     39 O         144.4958  142.5219  157.9047 O.3     1  UNL1       -0.3501
@<TRIPOS>BOND
     1    38    39    1
     2    39    37    1
     3    31    37    1
     4    31    32    1
     5    32    33    1
     6    33     1    1
     7     1     2   ar
     8     2     3   ar
     9     3     4   ar
    10     4     5   ar
    11     5     6    1
    12     5     7   ar
    13     7     8   ar
    14     8     9   ar
    15     9    10   ar
    16     8    11    1
    17    11    12    1
    18    12    13    1
    19    13    14    2
    20    13    15   am
    21    15    16   am
    22    16    17    2
    23    16    18   am
    24    18    19   am
    25    19    20    2
    26    21    12    1
    27    21    22    1
    28    22    23    1
    29    22    24    1
    30    24    25    1
    31    25    26    1
    32    25    27    1
    33    27    28    1
    34    33    34   am
    35    34    35    2
    36    34    36    1
    37    36    31    1
    38    10     1   ar
    39    19    12    1
    40    28    21    1
    41    10     4   ar
    42    28     7    1
    43    15    29    1
    44    18    30    1
@<TRIPOS>MOLECULE
*****
 39 44 0 0 0
SMALL
GASTEIGER

@<TRIPOS>ATOM
      1 C         142.9784  138.5175  157.6401 C.ar    1  UNL1        0.1801
      2 N         144.1320  139.3358  157.1407 N.ar    1  UNL1       -0.0614
      3 O         144.5615  140.2545  158.2459 O.2     1  UNL1       -0.3498
      4 C         143.6734  140.0039  159.4285 C.ar    1  UNL1        0.2065
      5 C         143.6292  140.6146  160.7978 C.ar    1  UNL1        0.1899
      6 F         144.6076  141.6882  161.1721 F       1  UNL1       -0.1996
      7 C         142.6065  140.1518  161.7928 C.ar    1  UNL1        0.0749
      8 C         141.6281  139.0782  161.4184 C.ar    1  UNL1       -0.0053
      9 C         141.6723  138.4675  160.0490 C.ar    1  UNL1        0.0032
     10 C         142.6950  138.9304  159.0541 C.ar    1  UNL1        0.0744
     11 C         140.6055  138.6153  162.4133 C.3     1  UNL1        0.0468
     12 C         140.5613  139.2260  163.7826 C.3     1  UNL1        0.1606
     13 C         139.5828  138.1524  163.4083 C.2     1  UNL1        0.2387
     14 O         139.6271  137.5417  162.0389 O.2     1  UNL1       -0.2741
     15 N         138.5602  137.6896  164.4033 N.am    1  UNL1       -0.2389
     16 C         138.5160  138.3002  165.7726 C.2     1  UNL1        0.3122
     17 O         137.4933  137.8374  166.7676 O.2     1  UNL1       -0.2520
     18 N         139.4944  139.3738  166.1470 N.am    1  UNL1       -0.2389
     19 C         140.5170  139.8367  165.1520 C.2     1  UNL1        0.2387
     20 O         140.9423  140.4013  165.5206 O.2     1  UNL1       -0.2741
     21 C         141.5397  140.2996  164.1570 C.3     1  UNL1        0.1166
     22 C         141.4954  140.9102  165.5264 C.3     1  UNL1        0.1341
     23 C         140.4728  140.4474  166.5214 C.3     1  UNL1        0.0338
     24 O         142.4739  141.9838  165.9008 O.3     1  UNL1       -0.3553
     25 C         143.4965  142.4467  164.9058 C.3     1  UNL1        0.1349
     26 C         144.4749  143.5202  165.2802 C.3     1  UNL1        0.0339
     27 C         143.5407  141.8360  163.5365 C.3     1  UNL1        0.1205
     28 N         142.5623  140.7624  163.1621 N.pl3   1  UNL1       -0.3019
     29 H         137.9180  136.9849  164.1576 H       1  UNL1        0.1591
     30 H         139.4654  139.7746  167.0457 H       1  UNL1        0.1591
     31 C         141.6868  135.3965  155.7279 C.3     1  UNL1        0.1060
     32 C         142.7540  136.1073  156.5064 C.3     1  UNL1        0.1143
     33 N         142.2382  137.4701  156.8623 N.am    1  UNL1       -0.2317
     34 C         140.8523  137.6017  156.3038 C.2     1  UNL1        0.2812
     35 O         139.9633  138.8037  156.4251 O.2     1  UNL1       -0.2623
     36 S         140.5115  136.3202  155.6027 S.3     1  UNL1       -0.0534
     37 C         141.7787  134.0064  155.1722 C.3     1  UNL1        0.1552
     38 C         142.9621  132.3905  156.8270 C.3     1  UNL1        0.1741
     39 O         141.7272  132.8248  156.0949 O.3     1  UNL1       -0.3501
@<TRIPOS>BOND
     1    38    39    1
     2    39    37    1
     3    31    37    1
     4    31    32    1
     5    32    33    1
     6    33     1    1
     7     1     2   ar
     8     2     3   ar
     9     3     4   ar
    10     4     5   ar
    11     5     6    1
    12     5     7   ar
    13     7     8   ar
    14     8     9   ar
    15     9    10   ar
    16     8    11    1
    17    11    12    1
    18    12    13    1
    19    13    14    2
    20    13    15   am
    21    15    16   am
    22    16    17    2
    23    16    18   am
    24    18    19   am
    25    19    20    2
    26    21    12    1
    27    21    22    1
    28    22    23    1
    29    22    24    1
    30    24    25    1
    31    25    26    1
    32    25    27    1
    33    27    28    1
    34    33    34   am
    35    34    35    2
    36    34    36    1
    37    36    31    1
    38    10     1   ar
    39    19    12    1
    40    28    21    1
    41    10     4   ar
    42    28     7    1
    43    15    29    1
    44    18    30    1
@<TRIPOS>MOLECULE
*****
 39 44 0 0 0
SMALL
GASTEIGER

@<TRIPOS>ATOM
      1 C         143.6215  141.8426  160.7766 C.ar    1  UNL1        0.1801
      2 N         144.8696  142.6695  160.8684 N.ar    1  UNL1       -0.0614
      3 O         145.1223  142.9682  162.3164 O.2     1  UNL1       -0.3498
      4 C         144.0303  142.3260  163.1196 C.ar    1  UNL1        0.2065
      5 C         143.7607  142.2848  164.5946 C.ar    1  UNL1        0.1899
      6 F         144.6883  142.9806  165.5463 F       1  UNL1       -0.1996
      7 C         142.5636  141.5479  165.1180 C.ar    1  UNL1        0.0749
      8 C         141.6361  140.8522  164.1664 C.ar    1  UNL1       -0.0053
      9 C         141.9057  140.8934  162.6913 C.ar    1  UNL1        0.0032
     10 C         143.1027  141.6303  162.1680 C.ar    1  UNL1        0.0744
     11 C         140.4390  140.1153  164.6897 C.3     1  UNL1        0.0468
     12 C         140.1694  140.0741  166.1647 C.3     1  UNL1        0.1606
     13 C         139.2419  139.3784  165.2130 C.2     1  UNL1        0.2387
     14 O         139.5114  139.4196  163.7380 O.2     1  UNL1       -0.2741
     15 N         138.0447  138.6415  165.7364 N.am    1  UNL1       -0.2389
     16 C         137.7752  138.6003  167.2114 C.2     1  UNL1        0.3122
     17 O         136.5780  137.8634  167.7348 O.2     1  UNL1       -0.2520
     18 N         138.7027  139.2960  168.1630 N.am    1  UNL1       -0.2389
     19 C         139.8998  140.0329  167.6397 C.2     1  UNL1        0.2387
     20 O         140.2692  140.3339  168.2788 O.2     1  UNL1       -0.2741
     21 C         141.0970  140.7698  167.1163 C.3     1  UNL1        0.1166
     22 C         140.8273  140.7286  168.5914 C.3     1  UNL1        0.1341
     23 C         139.6303  139.9918  169.1147 C.3     1  UNL1        0.0338
     24 O         141.7549  141.4244  169.5430 O.3     1  UNL1       -0.3553
     25 C         142.9520  142.1613  169.0196 C.3     1  UNL1        0.1349
     26 C         143.8796  142.8570  169.9713 C.3     1  UNL1        0.0339
     27 C         143.2216  142.2025  167.5446 C.3     1  UNL1        0.1205
     28 N         142.2940  141.5067  166.5930 N.pl3   1  UNL1       -0.3019
     29 H         137.4359  138.1849  165.1118 H       1  UNL1        0.1591
     30 H         138.5258  139.2690  169.1311 H       1  UNL1        0.1591
     31 C         141.7489  141.1905  157.4399 C.3     1  UNL1        0.1060
     32 C         142.1553  142.1053  158.5571 C.3     1  UNL1        0.1143
     33 N         143.0010  141.3197  159.5150 N.am    1  UNL1       -0.2317
     34 C         143.1172  139.9194  158.9900 C.2     1  UNL1        0.2812
     35 O         143.8743  138.7962  159.6342 O.2     1  UNL1       -0.2623
     36 S         142.3434  139.8396  157.7075 S.3     1  UNL1       -0.0534
     37 C         140.8976  141.5616  156.2620 C.3     1  UNL1        0.1552
     38 C         138.5227  141.9516  157.2408 C.3     1  UNL1        0.1741
     39 O         139.6990  142.4436  156.4510 O.3     1  UNL1       -0.3501
@<TRIPOS>BOND
     1    38    39    1
     2    39    37    1
     3    31    37    1
     4    31    32    1
     5    32    33    1
     6    33     1    1
     7     1     2   ar
     8     2     3   ar
     9     3     4   ar
    10     4     5   ar
    11     5     6    1
    12     5     7   ar
    13     7     8   ar
    14     8     9   ar
    15     9    10   ar
    16     8    11    1
    17    11    12    1
    18    12    13    1
    19    13    14    2
    20    13    15   am
    21    15    16   am
    22    16    17    2
    23    16    18   am
    24    18    19   am
    25    19    20    2
    26    21    12    1
    27    21    22    1
    28    22    23    1
    29    22    24    1
    30    24    25    1
    31    25    26    1
    32    25    27    1
    33    27    28    1
    34    33    34   am
    35    34    35    2
    36    34    36    1
    37    36    31    1
    38    10     1   ar
    39    19    12    1
    40    28    21    1
    41    10     4   ar
    42    28     7    1
    43    15    29    1
    44    18    30    1
@<TRIPOS>MOLECULE
*****
 39 44 0 0 0
SMALL
GASTEIGER

@<TRIPOS>ATOM
      1 C         141.3011  140.0181  159.9713 C.ar    1  UNL1        0.1801
      2 N         140.2243  139.1812  159.3467 N.ar    1  UNL1       -0.0614
      3 O         139.3222  138.6940  160.4416 O.2     1  UNL1       -0.3498
      4 C         139.8415  139.2296  161.7429 C.ar    1  UNL1        0.2065
      5 C         139.3587  139.0779  163.1549 C.ar    1  UNL1        0.1899
      6 F         138.1357  138.2596  163.4455 F       1  UNL1       -0.1996
      7 C         140.0989  139.7446  164.2764 C.ar    1  UNL1        0.0749
      8 C         141.3220  140.5630  163.9858 C.ar    1  UNL1       -0.0053
      9 C         141.8048  140.7147  162.5737 C.ar    1  UNL1        0.0032
     10 C         141.0645  140.0480  161.4523 C.ar    1  UNL1        0.0744
     11 C         142.0622  141.2297  165.1072 C.3     1  UNL1        0.0468
     12 C         141.5794  141.0780  166.5192 C.3     1  UNL1        0.1606
     13 C         142.8024  141.8963  166.2286 C.2     1  UNL1        0.2387
     14 O         143.2852  142.0480  164.8166 O.2     1  UNL1       -0.2741
     15 N         143.5426  142.5630  167.3501 N.am    1  UNL1       -0.2389
     16 C         143.0598  142.4114  168.7621 C.2     1  UNL1        0.3122
     17 O         143.8000  143.0781  169.8836 O.2     1  UNL1       -0.2520
     18 N         141.8368  141.5930  169.0527 N.am    1  UNL1       -0.2389
     19 C         141.0965  140.9263  167.9313 C.2     1  UNL1        0.2387
     20 O         140.4850  140.5425  168.2693 O.2     1  UNL1       -0.2741
     21 C         140.3563  140.2596  166.8098 C.3     1  UNL1        0.1166
     22 C         139.8735  140.1079  168.2219 C.3     1  UNL1        0.1341
     23 C         140.6137  140.7746  169.3433 C.3     1  UNL1        0.0338
     24 O         138.6505  139.2896  168.5125 O.3     1  UNL1       -0.3553
     25 C         137.9102  138.6229  167.3910 C.3     1  UNL1        0.1349
     26 C         136.6872  137.8045  167.6817 C.3     1  UNL1        0.0339
     27 C         138.3931  138.7746  165.9790 C.3     1  UNL1        0.1205
     28 N         139.6161  139.5929  165.6884 N.pl3   1  UNL1       -0.3019
     29 H         144.3453  143.1002  167.1593 H       1  UNL1        0.1591
     30 H         141.5199  141.4934  169.9795 H       1  UNL1        0.1591
     31 C         144.3188  141.1134  157.7897 C.3     1  UNL1        0.1060
     32 C         143.3682  140.0604  158.2771 C.3     1  UNL1        0.1143
     33 N         142.4184  140.7045  159.2430 N.am    1  UNL1       -0.2317
     34 C         142.7820  142.1557  159.3527 C.2     1  UNL1        0.2812
     35 O         142.0922  143.1751  160.2099 O.2     1  UNL1       -0.2623
     36 S         143.9565  142.4084  158.4545 S.3     1  UNL1       -0.0534
     37 C         145.4356  140.9077  156.8098 C.3     1  UNL1        0.1552
     38 C         144.6356  139.4210  154.8350 C.3     1  UNL1        0.1741
     39 O         145.5211  139.6307  156.0273 O.3     1  UNL1       -0.3501
@<TRIPOS>BOND
     1    38    39    1
     2    39    37    1
     3    31    37    1
     4    31    32    1
     5    32    33    1
     6    33     1    1
     7     1     2   ar
     8     2     3   ar
     9     3     4   ar
    10     4     5   ar
    11     5     6    1
    12     5     7   ar
    13     7     8   ar
    14     8     9   ar
    15     9    10   ar
    16     8    11    1
    17    11    12    1
    18    12    13    1
    19    13    14    2
    20    13    15   am
    21    15    16   am
    22    16    17    2
    23    16    18   am
    24    18    19   am
    25    19    20    2
    26    21    12    1
    27    21    22    1
    28    22    23    1
    29    22    24    1
    30    24    25    1
    31    25    26    1
    32    25    27    1
    33    27    28    1
    34    33    34   am
    35    34    35    2
    36    34    36    1
    37    36    31    1
    38    10     1   ar
    39    19    12    1
    40    28    21    1
    41    10     4   ar
    42    28     7    1
    43    15    29    1
    44    18    30    1
@<TRIPOS>MOLECULE
*****
 39 44 0 0 0
SMALL
GASTEIGER

@<TRIPOS>ATOM
      1 C         139.3809  139.2037  157.6447 C.ar    1  UNL1        0.1801
      2 N         138.3857  140.1356  157.0192 N.ar    1  UNL1       -0.0614
      3 O         137.9631  141.1292  158.0605 O.2     1  UNL1       -0.3498
      4 C         138.6971  140.8114  159.3294 C.ar    1  UNL1        0.2065
      5 C         138.6808  141.4518  160.6857 C.ar    1  UNL1        0.1899
      6 F         137.8046  142.6419  160.9427 F       1  UNL1       -0.1996
      7 C         139.5408  140.9023  161.7851 C.ar    1  UNL1        0.0749
      8 C         140.4170  139.7122  161.5281 C.ar    1  UNL1       -0.0053
      9 C         140.4333  139.0718  160.1717 C.ar    1  UNL1        0.0032
     10 C         139.5733  139.6214  159.0725 C.ar    1  UNL1        0.0744
     11 C         141.2769  139.1627  162.6274 C.3     1  UNL1        0.0468
     12 C         141.2606  139.8031  163.9836 C.3     1  UNL1        0.1606
     13 C         142.1368  138.6131  163.7266 C.2     1  UNL1        0.2387
     14 O         142.1531  137.9726  162.3704 O.2     1  UNL1       -0.2741
     15 N         142.9968  138.0635  164.8260 N.am    1  UNL1       -0.2389
     16 C         142.9805  138.7040  166.1823 C.2     1  UNL1        0.3122
     17 O         143.8404  138.1544  167.2816 O.2     1  UNL1       -0.2520
     18 N         142.1042  139.8940  166.4393 N.am    1  UNL1       -0.2389
     19 C         141.2443  140.4436  165.3400 C.2     1  UNL1        0.2387
     20 O         140.8551  141.0640  165.6548 O.2     1  UNL1       -0.2741
     21 C         140.3844  140.9931  164.2406 C.3     1  UNL1        0.1166
     22 C         140.3681  141.6336  165.5970 C.3     1  UNL1        0.1341
     23 C         141.2280  141.0840  166.6963 C.3     1  UNL1        0.0338
     24 O         139.4918  142.8236  165.8540 O.3     1  UNL1       -0.3553
     25 C         138.6319  143.3732  164.7546 C.3     1  UNL1        0.1349
     26 C         137.7557  144.5632  165.0116 C.3     1  UNL1        0.0339
     27 C         138.6482  142.7328  163.3983 C.3     1  UNL1        0.1205
     28 N         139.5244  141.5427  163.1413 N.pl3   1  UNL1       -0.3019
     29 H         143.5719  137.2824  164.6574 H       1  UNL1        0.1591
     30 H         142.0935  140.3143  167.3294 H       1  UNL1        0.1591
     31 C         141.7401  136.4300  156.3008 C.3     1  UNL1        0.1060
     32 C         141.4773  137.6089  157.1903 C.3     1  UNL1        0.1143
     33 N         140.0637  138.0557  156.9622 N.am    1  UNL1       -0.2317
     34 C         139.4528  137.1530  155.9317 C.2     1  UNL1        0.2812
     35 O         138.0519  137.2398  155.4028 O.2     1  UNL1       -0.2623
     36 S         140.4888  136.1483  155.5230 S.3     1  UNL1       -0.0534
     37 C         143.0279  135.6668  156.2059 C.3     1  UNL1        0.1552
     38 C         143.1825  133.1948  156.9901 C.3     1  UNL1        0.1741
     39 O         143.3808  134.6572  157.2577 O.3     1  UNL1       -0.3501
@<TRIPOS>BOND
     1    38    39    1
     2    39    37    1
     3    31    37    1
     4    31    32    1
     5    32    33    1
     6    33     1    1
     7     1     2   ar
     8     2     3   ar
     9     3     4   ar
    10     4     5   ar
    11     5     6    1
    12     5     7   ar
    13     7     8   ar
    14     8     9   ar
    15     9    10   ar
    16     8    11    1
    17    11    12    1
    18    12    13    1
    19    13    14    2
    20    13    15   am
    21    15    16   am
    22    16    17    2
    23    16    18   am
    24    18    19   am
    25    19    20    2
    26    21    12    1
    27    21    22    1
    28    22    23    1
    29    22    24    1
    30    24    25    1
    31    25    26    1
    32    25    27    1
    33    27    28    1
    34    33    34   am
    35    34    35    2
    36    34    36    1
    37    36    31    1
    38    10     1   ar
    39    19    12    1
    40    28    21    1
    41    10     4   ar
    42    28     7    1
    43    15    29    1
    44    18    30    1
@<TRIPOS>MOLECULE
*****
 39 44 0 0 0
SMALL
GASTEIGER

@<TRIPOS>ATOM
      1 C         138.8491  141.4183  158.0766 C.ar    1  UNL1        0.1801
      2 N         137.6242  140.5659  157.9245 N.ar    1  UNL1       -0.0614
      3 O         137.2884  139.9929  159.2694 O.2     1  UNL1       -0.3498
      4 C         138.3057  140.4910  160.2527 C.ar    1  UNL1        0.2065
      5 C         138.4784  140.2563  161.7241 C.ar    1  UNL1        0.1899
      6 F         137.5138  139.3754  162.4613 F       1  UNL1       -0.1996
      7 C         139.6157  140.9026  162.4584 C.ar    1  UNL1        0.0749
      8 C         140.5802  141.7835  161.7211 C.ar    1  UNL1       -0.0053
      9 C         140.4075  142.0182  160.2497 C.ar    1  UNL1        0.0032
     10 C         139.2703  141.3720  159.5155 C.ar    1  UNL1        0.0744
     11 C         141.7175  142.4298  162.4553 C.3     1  UNL1        0.0468
     12 C         141.8901  142.1950  163.9267 C.3     1  UNL1        0.1606
     13 C         142.8547  143.0760  163.1895 C.2     1  UNL1        0.2387
     14 O         142.6820  143.3107  161.7181 O.2     1  UNL1       -0.2741
     15 N         143.9920  143.7222  163.9237 N.am    1  UNL1       -0.2389
     16 C         144.1646  143.4875  165.3951 C.2     1  UNL1        0.3122
     17 O         145.3019  144.1338  166.1294 O.2     1  UNL1       -0.2520
     18 N         143.2000  142.6065  166.1324 N.am    1  UNL1       -0.2389
     19 C         142.0628  141.9603  165.3982 C.2     1  UNL1        0.2387
     20 O         141.6627  141.5366  165.9421 O.2     1  UNL1       -0.2741
     21 C         140.9255  141.3141  164.6639 C.3     1  UNL1        0.1166
     22 C         141.0982  141.0794  166.1354 C.3     1  UNL1        0.1341
     23 C         142.2354  141.7256  166.8696 C.3     1  UNL1        0.0338
     24 O         140.1336  140.1984  166.8726 O.3     1  UNL1       -0.3553
     25 C         138.9964  139.5522  166.1384 C.3     1  UNL1        0.1349
     26 C         138.0318  138.6712  166.8756 C.3     1  UNL1        0.0339
     27 C         138.8237  139.7869  164.6670 C.3     1  UNL1        0.1205
     28 N         139.7883  140.6678  163.9298 N.pl3   1  UNL1       -0.3019
     29 H         144.6250  144.3004  163.4399 H       1  UNL1        0.1591
     30 H         143.3133  142.4525  167.0981 H       1  UNL1        0.1591
     31 C         140.1844  143.9684  155.4729 C.3     1  UNL1        0.1060
     32 C         139.2867  143.6180  156.6224 C.3     1  UNL1        0.1143
     33 N         139.5328  142.1827  156.9819 N.am    1  UNL1       -0.2317
     34 C         140.5826  141.6460  156.0547 C.2     1  UNL1        0.2812
     35 O         141.1331  140.2507  156.0593 O.2     1  UNL1       -0.2623
     36 S         140.9854  142.7496  155.1221 S.3     1  UNL1       -0.0534
     37 C         140.2668  145.3031  154.7935 C.3     1  UNL1        0.1552
     38 C         139.1289  147.3258  155.9614 C.3     1  UNL1        0.1741
     39 O         140.3680  146.5563  155.6118 O.3     1  UNL1       -0.3501
@<TRIPOS>BOND
     1    38    39    1
     2    39    37    1
     3    31    37    1
     4    31    32    1
     5    32    33    1
     6    33     1    1
     7     1     2   ar
     8     2     3   ar
     9     3     4   ar
    10     4     5   ar
    11     5     6    1
    12     5     7   ar
    13     7     8   ar
    14     8     9   ar
    15     9    10   ar
    16     8    11    1
    17    11    12    1
    18    12    13    1
    19    13    14    2
    20    13    15   am
    21    15    16   am
    22    16    17    2
    23    16    18   am
    24    18    19   am
    25    19    20    2
    26    21    12    1
    27    21    22    1
    28    22    23    1
    29    22    24    1
    30    24    25    1
    31    25    26    1
    32    25    27    1
    33    27    28    1
    34    33    34   am
    35    34    35    2
    36    34    36    1
    37    36    31    1
    38    10     1   ar
    39    19    12    1
    40    28    21    1
    41    10     4   ar
    42    28     7    1
    43    15    29    1
    44    18    30    1
@<TRIPOS>MOLECULE
*****
 39 44 0 0 0
SMALL
GASTEIGER

@<TRIPOS>ATOM
      1 C         140.1194  143.6624  157.8540 C.ar    1  UNL1        0.1801
      2 N         141.2573  144.5353  157.4145 N.ar    1  UNL1       -0.0614
      3 O         142.1950  144.6934  158.5746 O.2     1  UNL1       -0.3498
      4 C         141.6366  143.9182  159.7310 C.ar    1  UNL1        0.2065
      5 C         142.1305  143.7102  161.1320 C.ar    1  UNL1        0.1899
      6 F         143.4133  144.3474  161.5774 F       1  UNL1       -0.1996
      7 C         141.3415  142.8650  162.0877 C.ar    1  UNL1        0.0749
      8 C         140.0587  142.2278  161.6423 C.ar    1  UNL1       -0.0053
      9 C         139.5648  142.4358  160.2412 C.ar    1  UNL1        0.0032
     10 C         140.3538  143.2810  159.2856 C.ar    1  UNL1        0.0744
     11 C         139.2697  141.3826  162.5979 C.3     1  UNL1        0.0468
     12 C         139.7636  141.1746  163.9989 C.3     1  UNL1        0.1606
     13 C         138.4808  140.5374  163.5535 C.2     1  UNL1        0.2387
     14 O         137.9869  140.7454  162.1525 O.2     1  UNL1       -0.2741
     15 N         137.6919  139.6922  164.5092 N.am    1  UNL1       -0.2389
     16 C         138.1857  139.4843  165.9102 C.2     1  UNL1        0.3122
     17 O         137.3968  138.6390  166.8658 O.2     1  UNL1       -0.2520
     18 N         139.4685  140.1215  166.3555 N.am    1  UNL1       -0.2389
     19 C         140.2575  140.9666  165.3999 C.2     1  UNL1        0.2387
     20 O         140.8971  141.2170  165.8046 O.2     1  UNL1       -0.2741
     21 C         141.0464  141.8118  164.4443 C.3     1  UNL1        0.1166
     22 C         141.5403  141.6038  165.8453 C.3     1  UNL1        0.1341
     23 C         140.7513  140.7587  166.8009 C.3     1  UNL1        0.0338
     24 O         142.8231  142.2410  166.2907 O.3     1  UNL1       -0.3553
     25 C         143.6120  143.0862  165.3350 C.3     1  UNL1        0.1349
     26 C         144.8949  143.7234  165.7804 C.3     1  UNL1        0.0339
     27 C         143.1182  143.2942  163.9341 C.3     1  UNL1        0.1205
     28 N         141.8354  142.6570  163.4887 N.pl3   1  UNL1       -0.3019
     29 H         136.8499  139.2740  164.2169 H       1  UNL1        0.1591
     30 H         139.7927  139.9849  167.2751 H       1  UNL1        0.1591
     31 C         137.1787  141.9168  156.0179 C.3     1  UNL1        0.1060
     32 C         138.3033  141.8918  157.0103 C.3     1  UNL1        0.1143
     33 N         138.9520  143.2442  157.0100 N.am    1  UNL1       -0.2317
     34 C         138.2284  144.1052  156.0175 C.2     1  UNL1        0.2812
     35 O         138.5450  145.5354  155.6947 O.2     1  UNL1       -0.2623
     36 S         137.1324  143.2849  155.4044 S.3     1  UNL1       -0.0534
     37 C         136.2616  140.7746  155.6958 C.3     1  UNL1        0.1552
     38 C         133.8208  140.1956  156.3723 C.3     1  UNL1        0.1741
     39 O         135.2769  140.2916  156.7192 O.3     1  UNL1       -0.3501
@<TRIPOS>BOND
     1    38    39    1
     2    39    37    1
     3    31    37    1
     4    31    32    1
     5    32    33    1
     6    33     1    1
     7     1     2   ar
     8     2     3   ar
     9     3     4   ar
    10     4     5   ar
    11     5     6    1
    12     5     7   ar
    13     7     8   ar
    14     8     9   ar
    15     9    10   ar
    16     8    11    1
    17    11    12    1
    18    12    13    1
    19    13    14    2
    20    13    15   am
    21    15    16   am
    22    16    17    2
    23    16    18   am
    24    18    19   am
    25    19    20    2
    26    21    12    1
    27    21    22    1
    28    22    23    1
    29    22    24    1
    30    24    25    1
    31    25    26    1
    32    25    27    1
    33    27    28    1
    34    33    34   am
    35    34    35    2
    36    34    36    1
    37    36    31    1
    38    10     1   ar
    39    19    12    1
    40    28    21    1
    41    10     4   ar
    42    28     7    1
    43    15    29    1
    44    18    30    1
@<TRIPOS>MOLECULE
*****
 39 44 0 0 0
SMALL
GASTEIGER

@<TRIPOS>ATOM
      1 C         142.2163  142.2738  162.0440 C.ar    1  UNL1        0.1801
      2 N         143.1897  143.3914  162.2759 N.ar    1  UNL1       -0.0614
      3 O         142.9631  144.4303  161.2179 O.2     1  UNL1       -0.3498
      4 C         141.8498  143.9548  160.3321 C.ar    1  UNL1        0.2065
      5 C         141.1967  144.5632  159.1267 C.ar    1  UNL1        0.1899
      6 F         141.6583  145.8960  158.6161 F       1  UNL1       -0.1996
      7 C         140.0820  143.8389  158.4317 C.ar    1  UNL1        0.0749
      8 C         139.6205  142.5061  158.9423 C.ar    1  UNL1       -0.0053
      9 C         140.2736  141.8977  160.1479 C.ar    1  UNL1        0.0032
     10 C         141.3883  142.6220  160.8427 C.ar    1  UNL1        0.0744
     11 C         138.5058  141.7818  158.2475 C.3     1  UNL1        0.0468
     12 C         137.8528  142.3902  157.0420 C.3     1  UNL1        0.1606
     13 C         137.3912  141.0575  157.5526 C.2     1  UNL1        0.2387
     14 O         138.0443  140.4490  158.7581 O.2     1  UNL1       -0.2741
     15 N         136.2765  140.3331  156.8576 N.am    1  UNL1       -0.2389
     16 C         135.6234  140.9416  155.6522 C.2     1  UNL1        0.3122
     17 O         134.5087  140.2172  154.9572 O.2     1  UNL1       -0.2520
     18 N         136.0850  142.2743  155.1416 N.am    1  UNL1       -0.2389
     19 C         137.1996  142.9987  155.8364 C.2     1  UNL1        0.2387
     20 O         137.3063  143.6773  155.4320 O.2     1  UNL1       -0.2741
     21 C         138.3143  143.7230  156.5314 C.3     1  UNL1        0.1166
     22 C         137.6611  144.3314  155.3258 C.3     1  UNL1        0.1341
     23 C         136.5465  143.6071  154.6310 C.3     1  UNL1        0.0338
     24 O         138.1227  145.6642  154.8152 O.3     1  UNL1       -0.3553
     25 C         139.2374  146.3885  155.5102 C.3     1  UNL1        0.1349
     26 C         139.6989  147.7213  154.9996 C.3     1  UNL1        0.0339
     27 C         139.8905  145.7801  156.7156 C.3     1  UNL1        0.1205
     28 N         139.4289  144.4473  157.2262 N.pl3   1  UNL1       -0.3019
     29 H         135.9736  139.4584  157.1928 H       1  UNL1        0.1591
     30 H         135.6563  142.6737  154.3504 H       1  UNL1        0.1591
     31 C         141.1929  139.2870  164.3017 C.3     1  UNL1        0.1060
     32 C         140.8718  140.5834  163.6187 C.3     1  UNL1        0.1143
     33 N         142.0928  141.0270  162.8687 N.am    1  UNL1       -0.2317
     34 C         143.1685  140.0048  163.0881 C.2     1  UNL1        0.2812
     35 O         144.5565  140.0500  162.5214 O.2     1  UNL1       -0.2623
     36 S         142.6123  138.9295  163.9737 S.3     1  UNL1       -0.0534
     37 C         140.2588  138.4884  165.1616 C.3     1  UNL1        0.1552
     38 C         138.8987  137.6214  163.1248 C.3     1  UNL1        0.1741
     39 O         138.9815  137.9532  164.5852 O.3     1  UNL1       -0.3501
@<TRIPOS>BOND
     1    38    39    1
     2    39    37    1
     3    31    37    1
     4    31    32    1
     5    32    33    1
     6    33     1    1
     7     1     2   ar
     8     2     3   ar
     9     3     4   ar
    10     4     5   ar
    11     5     6    1
    12     5     7   ar
    13     7     8   ar
    14     8     9   ar
    15     9    10   ar
    16     8    11    1
    17    11    12    1
    18    12    13    1
    19    13    14    2
    20    13    15   am
    21    15    16   am
    22    16    17    2
    23    16    18   am
    24    18    19   am
    25    19    20    2
    26    21    12    1
    27    21    22    1
    28    22    23    1
    29    22    24    1
    30    24    25    1
    31    25    26    1
    32    25    27    1
    33    27    28    1
    34    33    34   am
    35    34    35    2
    36    34    36    1
    37    36    31    1
    38    10     1   ar
    39    19    12    1
    40    28    21    1
    41    10     4   ar
    42    28     7    1
    43    15    29    1
    44    18    30    1
