@<TRIPOS>MOLECULE
*****
 44 50 0 0 0
SMALL
GASTEIGER

@<TRIPOS>ATOM
      1 C         140.9905  141.5660  159.7834 C.3     1  UNL1        0.1707
      2 N         141.2817  140.4824  158.7880 N.3     1  UNL1       -0.2797
      3 C         142.5218  139.6500  158.9270 C.3     1  UNL1        0.1167
      4 C         143.4706  139.9012  160.0613 C.3     1  UNL1        0.0511
      5 C         143.1793  140.9848  161.0567 C.2     1  UNL1       -0.0037
      6 C         141.9392  141.8173  160.9178 C.2     1  UNL1        0.0800
      7 N         141.9171  142.8075  162.0443 N.2     1  UNL1       -0.2519
      8 C         143.1435  142.5870  162.8794 C.2     1  UNL1        0.0627
      9 C         143.6506  143.2665  164.1168 C.3     1  UNL1        0.0717
     10 C         144.9378  142.8195  164.7438 C.2     1  UNL1       -0.0198
     11 C         145.7179  141.6930  164.1334 C.2     1  UNL1       -0.0042
     12 C         145.2108  141.0136  162.8961 C.2     1  UNL1        0.0006
     13 C         143.9236  141.4606  162.2691 C.2     1  UNL1        0.0111
     14 H         141.3277  140.9286  157.8720 H       1  UNL1        0.1246
     15 C         140.2845  142.6991  160.4675 C.ar    1  UNL1        0.2493
     16 N         139.2445  142.5706  161.5405 N.ar    1  UNL1       -0.1282
     17 N         138.8120  143.9518  161.9347 N.ar    1  UNL1       -0.1772
     18 C         139.5848  144.9339  161.1051 C.ar    1  UNL1        0.4392
     19 O         139.4680  146.4279  161.1709 O.2     1  UNL1       -0.2210
     20 O         140.4949  144.1597  160.1983 O.2     1  UNL1       -0.3896
     21 C         137.7867  144.2912  162.9756 C.3     1  UNL1        0.1752
     22 C         137.9988  143.8747  164.4010 C.2     1  UNL1        0.0752
     23 O         137.8130  142.4404  164.7989 O.co2   1  UNL1       -0.5471
     24 O         138.3966  144.8926  165.4284 O.co2   1  UNL1       -0.5471
     25 C         142.8131  138.5662  157.9315 C.ar    1  UNL1        0.1319
     26 N         142.3628  137.1386  158.0256 N.ar    1  UNL1       -0.2282
     27 C         142.8772  136.4099  156.8195 C.ar    1  UNL1        0.1171
     28 C         143.6454  137.3873  155.9802 C.ar    1  UNL1        0.0942
     29 N         143.6058  138.7200  156.6675 N.ar    1  UNL1       -0.3385
     30 H         144.0263  139.5499  156.3455 H       1  UNL1        0.1672
     31 C         142.6613  134.9586  156.5076 C.ar    1  UNL1        0.1006
     32 C         141.6976  134.5584  155.4301 C.ar    1  UNL1        0.0230
     33 C         141.4816  133.1072  155.1181 C.ar    1  UNL1        0.0328
     34 C         142.2293  132.0562  155.8838 C.ar    1  UNL1        0.1592
     35 F         142.0134  130.6050  155.5718 F       1  UNL1       -0.2025
     36 C         143.1930  132.4564  156.9613 C.ar    1  UNL1        0.1284
     37 N         143.4090  133.9076  157.2732 N.ar    1  UNL1       -0.2399
     38 N         138.2802  142.5171  157.1728 N.ar    1  UNL1       -0.2497
     39 C         139.6143  142.7463  157.8193 C.ar    1  UNL1        0.0944
     40 C         139.7965  141.7083  158.8867 C.ar    1  UNL1        0.0439
     41 C         138.5751  140.8376  158.8999 C.ar    1  UNL1        0.1194
     42 N         137.6380  141.3375  157.8406 N.ar    1  UNL1       -0.1679
     43 C         136.3990  142.9021  155.4227 C.3     1  UNL1        0.0284
     44 C         137.6917  143.3256  156.0547 C.3     1  UNL1        0.1276
@<TRIPOS>UNITY_ATOM_ATTR
23 1
charge -1
@<TRIPOS>BOND
     1    43    44    1
     2    44    38    1
     3    38    39   ar
     4    39    40   ar
     5     1    40    1
     6     1    15    1
     7    15    16   ar
     8    16    17   ar
     9    17    21    1
    10    21    22    1
    11    22    23   ar
    12    22    24   ar
    13    17    18   ar
    14    18    19    2
    15    18    20   ar
    16     1     2    1
    17     2     3    1
    18     3    25    1
    19    25    26   ar
    20    26    27   ar
    21    27    31    1
    22    31    32   ar
    23    32    33   ar
    24    33    34   ar
    25    34    35    1
    26    34    36   ar
    27    36    37   ar
    28    27    28   ar
    29    28    29   ar
    30     3     4    1
    31     4     5    1
    32     5     6    2
    33     6     7    1
    34     7     8    2
    35     8     9    1
    36     9    10    1
    37    10    11    2
    38    11    12    1
    39    12    13    2
    40    40    41   ar
    41    41    42   ar
    42    42    38   ar
    43     6     1    1
    44    13     8    1
    45    20    15   ar
    46    29    25   ar
    47    13     5    1
    48    37    31   ar
    49     2    14    1
    50    29    30    1
@<TRIPOS>MOLECULE
*****
 44 50 0 0 0
SMALL
GASTEIGER

@<TRIPOS>ATOM
      1 C         142.6286  141.2426  159.5807 C.3     1  UNL1        0.1707
      2 N         142.9953  139.9306  158.9529 N.3     1  UNL1       -0.2797
      3 C         142.9530  139.7749  157.4616 C.3     1  UNL1        0.1167
      4 C         142.5438  140.9313  156.5981 C.3     1  UNL1        0.0511
      5 C         142.1771  142.2433  157.2259 C.2     1  UNL1       -0.0037
      6 C         142.2195  142.3989  158.7172 C.2     1  UNL1        0.0800
      7 N         141.8066  143.8024  159.0486 N.2     1  UNL1       -0.2519
      8 C         141.5090  144.5141  157.7622 C.2     1  UNL1        0.0627
      9 C         141.0592  145.9150  157.4710 C.3     1  UNL1        0.0717
     10 C         140.8383  146.3524  156.0533 C.2     1  UNL1       -0.0198
     11 C         141.0673  145.3888  154.9268 C.2     1  UNL1       -0.0042
     12 C         141.5171  143.9879  155.2180 C.2     1  UNL1        0.0006
     13 C         141.7380  143.5505  156.6357 C.2     1  UNL1        0.0111
     14 H         142.3615  139.2315  159.3400 H       1  UNL1        0.1246
     15 C         142.3732  142.2780  160.6356 C.ar    1  UNL1        0.2493
     16 N         141.0470  142.5876  161.2642 N.ar    1  UNL1       -0.1282
     17 N         141.2534  143.6865  162.2642 N.ar    1  UNL1       -0.1772
     18 C         142.7071  144.0559  162.2536 C.ar    1  UNL1        0.4392
     19 O         143.3550  145.1106  163.1008 O.2     1  UNL1       -0.2210
     20 O         143.3992  143.1853  161.2470 O.2     1  UNL1       -0.3896
     21 C         140.1922  144.3069  163.1239 C.3     1  UNL1        0.1752
     22 C         139.0379  145.0248  162.4896 C.2     1  UNL1        0.0752
     23 O         139.2888  146.1851  161.5725 O.co2   1  UNL1       -0.5471
     24 O         137.6328  144.5825  162.7723 O.co2   1  UNL1       -0.5471
     25 C         143.3197  138.4629  156.8337 C.ar    1  UNL1        0.1319
     26 N         142.7652  137.1206  157.2086 N.ar    1  UNL1       -0.2282
     27 C         143.4080  136.0909  156.3273 C.ar    1  UNL1        0.1171
     28 C         144.3598  136.7970  155.4078 C.ar    1  UNL1        0.0942
     29 N         144.3052  138.2629  155.7207 N.ar    1  UNL1       -0.3385
     30 H         144.8250  138.9698  155.2741 H       1  UNL1        0.1672
     31 C         143.1452  134.6144  156.3599 C.ar    1  UNL1        0.1006
     32 C         142.0100  134.0371  155.5674 C.ar    1  UNL1        0.0230
     33 C         141.7472  132.5607  155.6000 C.ar    1  UNL1        0.0328
     34 C         142.6195  131.6617  156.4250 C.ar    1  UNL1        0.1592
     35 F         142.3567  130.1852  156.4576 F       1  UNL1       -0.2025
     36 C         143.7547  132.2390  157.2175 C.ar    1  UNL1        0.1284
     37 N         144.0175  133.7154  157.1850 N.ar    1  UNL1       -0.2399
     38 N         142.7290  138.9906  162.7404 N.ar    1  UNL1       -0.2497
     39 C         141.9834  139.6067  161.5938 C.ar    1  UNL1        0.0944
     40 C         142.9490  140.4459  160.8105 C.ar    1  UNL1        0.0439
     41 C         144.2913  140.3484  161.4730 C.ar    1  UNL1        0.1194
     42 N         144.1552  139.4490  162.6658 N.ar    1  UNL1       -0.1679
     43 C         141.0025  137.1757  163.4299 C.3     1  UNL1        0.0284
     44 C         142.1498  138.0766  163.7793 C.3     1  UNL1        0.1276
@<TRIPOS>UNITY_ATOM_ATTR
23 1
charge -1
@<TRIPOS>BOND
     1    43    44    1
     2    44    38    1
     3    38    39   ar
     4    39    40   ar
     5     1    40    1
     6     1    15    1
     7    15    16   ar
     8    16    17   ar
     9    17    21    1
    10    21    22    1
    11    22    23   ar
    12    22    24   ar
    13    17    18   ar
    14    18    19    2
    15    18    20   ar
    16     1     2    1
    17     2     3    1
    18     3    25    1
    19    25    26   ar
    20    26    27   ar
    21    27    31    1
    22    31    32   ar
    23    32    33   ar
    24    33    34   ar
    25    34    35    1
    26    34    36   ar
    27    36    37   ar
    28    27    28   ar
    29    28    29   ar
    30     3     4    1
    31     4     5    1
    32     5     6    2
    33     6     7    1
    34     7     8    2
    35     8     9    1
    36     9    10    1
    37    10    11    2
    38    11    12    1
    39    12    13    2
    40    40    41   ar
    41    41    42   ar
    42    42    38   ar
    43     6     1    1
    44    13     8    1
    45    20    15   ar
    46    29    25   ar
    47    13     5    1
    48    37    31   ar
    49     2    14    1
    50    29    30    1
@<TRIPOS>MOLECULE
*****
 44 50 0 0 0
SMALL
GASTEIGER

@<TRIPOS>ATOM
      1 C         141.5922  142.0765  160.3057 C.3     1  UNL1        0.1707
      2 N         142.4194  141.9241  159.0638 N.3     1  UNL1       -0.2797
      3 C         143.6809  141.1132  159.0977 C.3     1  UNL1        0.1167
      4 C         144.1152  140.4548  160.3736 C.3     1  UNL1        0.0511
      5 C         143.2880  140.6072  161.6156 C.2     1  UNL1       -0.0037
      6 C         142.0265  141.4181  161.5816 C.2     1  UNL1        0.0800
      7 N         141.4210  141.3908  162.9537 N.2     1  UNL1       -0.2519
      8 C         142.3082  140.5631  163.8356 C.2     1  UNL1        0.0627
      9 C         142.2145  140.1878  165.2848 C.3     1  UNL1        0.0717
     10 C         143.2747  139.3282  165.9070 C.2     1  UNL1       -0.0198
     11 C         144.4286  138.8440  165.0800 C.2     1  UNL1       -0.0042
     12 C         144.5223  139.2192  163.6308 C.2     1  UNL1        0.0006
     13 C         143.4621  140.0788  163.0086 C.2     1  UNL1        0.0111
     14 H         142.6815  142.8642  158.7674 H       1  UNL1        0.1246
     15 C         140.4800  142.5098  161.2143 C.ar    1  UNL1        0.2493
     16 N         140.4628  143.7504  162.0572 N.ar    1  UNL1       -0.1282
     17 N         139.1619  143.7858  162.8032 N.ar    1  UNL1       -0.1772
     18 C         138.3752  142.5672  162.4213 C.ar    1  UNL1        0.4392
     19 O         137.0130  142.2013  162.9318 O.2     1  UNL1       -0.2210
     20 O         139.1899  141.7785  161.4392 O.2     1  UNL1       -0.3896
     21 C         138.7246  144.8527  163.7626 C.3     1  UNL1        0.1752
     22 C         138.9102  144.6563  165.2382 C.2     1  UNL1        0.0752
     23 O         139.8362  143.5893  165.7421 O.co2   1  UNL1       -0.5471
     24 O         138.1697  145.5268  166.2096 O.co2   1  UNL1       -0.5471
     25 C         144.5081  140.9608  157.8557 C.ar    1  UNL1        0.1319
     26 N         145.5225  141.9413  157.3462 N.ar    1  UNL1       -0.2282
     27 C         146.1075  141.3876  156.0808 C.ar    1  UNL1        0.1171
     28 C         145.4546  140.0650  155.8082 C.ar    1  UNL1        0.0942
     29 N         144.4661  139.8012  156.9052 N.ar    1  UNL1       -0.3385
     30 H         143.8908  139.0064  156.9869 H       1  UNL1        0.1672
     31 C         147.1605  142.0418  155.2362 C.ar    1  UNL1        0.1006
     32 C         146.8064  143.2151  154.3714 C.ar    1  UNL1        0.0230
     33 C         147.8593  143.8693  153.5269 C.ar    1  UNL1        0.0328
     34 C         149.2664  143.3502  153.5471 C.ar    1  UNL1        0.1592
     35 F         150.3195  144.0044  152.7026 F       1  UNL1       -0.2025
     36 C         149.6206  142.1769  154.4120 C.ar    1  UNL1        0.1284
     37 N         148.5677  141.5227  155.2565 N.ar    1  UNL1       -0.2399
     38 N         139.9925  144.6995  157.9339 N.ar    1  UNL1       -0.2497
     39 C         141.0719  144.2821  158.8882 C.ar    1  UNL1        0.0944
     40 C         140.7716  142.8854  159.3454 C.ar    1  UNL1        0.0439
     41 C         139.5067  142.4396  158.6736 C.ar    1  UNL1        0.1194
     42 N         139.0252  143.5608  157.8012 N.ar    1  UNL1       -0.1679
     43 C         140.7273  146.2882  156.0140 C.3     1  UNL1        0.0284
     44 C         139.8971  146.0233  157.2349 C.3     1  UNL1        0.1276
@<TRIPOS>UNITY_ATOM_ATTR
23 1
charge -1
@<TRIPOS>BOND
     1    43    44    1
     2    44    38    1
     3    38    39   ar
     4    39    40   ar
     5     1    40    1
     6     1    15    1
     7    15    16   ar
     8    16    17   ar
     9    17    21    1
    10    21    22    1
    11    22    23   ar
    12    22    24   ar
    13    17    18   ar
    14    18    19    2
    15    18    20   ar
    16     1     2    1
    17     2     3    1
    18     3    25    1
    19    25    26   ar
    20    26    27   ar
    21    27    31    1
    22    31    32   ar
    23    32    33   ar
    24    33    34   ar
    25    34    35    1
    26    34    36   ar
    27    36    37   ar
    28    27    28   ar
    29    28    29   ar
    30     3     4    1
    31     4     5    1
    32     5     6    2
    33     6     7    1
    34     7     8    2
    35     8     9    1
    36     9    10    1
    37    10    11    2
    38    11    12    1
    39    12    13    2
    40    40    41   ar
    41    41    42   ar
    42    42    38   ar
    43     6     1    1
    44    13     8    1
    45    20    15   ar
    46    29    25   ar
    47    13     5    1
    48    37    31   ar
    49     2    14    1
    50    29    30    1
@<TRIPOS>MOLECULE
*****
 44 50 0 0 0
SMALL
GASTEIGER

@<TRIPOS>ATOM
      1 C         141.1149  140.2464  159.6694 C.3     1  UNL1        0.1707
      2 N         141.6671  138.9972  159.0495 N.3     1  UNL1       -0.2797
      3 C         142.3517  139.0608  157.7164 C.3     1  UNL1        0.1167
      4 C         142.4841  140.3738  157.0032 C.3     1  UNL1        0.0511
      5 C         141.9319  141.6230  157.6230 C.2     1  UNL1       -0.0037
      6 C         141.2473  141.5594  158.9562 C.2     1  UNL1        0.0800
      7 N         140.8052  142.9466  159.3168 N.2     1  UNL1       -0.2519
      8 C         141.2166  143.8676  158.2067 C.2     1  UNL1        0.0627
      9 C         141.0471  145.3455  158.0137 C.3     1  UNL1        0.0717
     10 C         141.5739  146.0052  156.7740 C.2     1  UNL1       -0.0198
     11 C         142.2703  145.1872  155.7271 C.2     1  UNL1       -0.0042
     12 C         142.4398  143.7094  155.9201 C.2     1  UNL1        0.0006
     13 C         141.9129  143.0496  157.1598 C.2     1  UNL1        0.0111
     14 H         140.8864  138.3484  158.9489 H       1  UNL1        0.1246
     15 C         140.4346  141.1487  160.6560 C.ar    1  UNL1        0.2493
     16 N         141.1162  142.0453  161.6465 N.ar    1  UNL1       -0.1282
     17 N         140.0560  142.7634  162.4279 N.ar    1  UNL1       -0.1772
     18 C         138.7192  142.3104  161.9202 C.ar    1  UNL1        0.4392
     19 O         137.3830  142.7741  162.4200 O.2     1  UNL1       -0.2210
     20 O         138.9532  141.3124  160.8251 O.2     1  UNL1       -0.3896
     21 C         140.2914  143.7595  163.5244 C.3     1  UNL1        0.1752
     22 C         140.9469  145.0731  163.2163 C.2     1  UNL1        0.0752
     23 O         142.1881  145.4827  163.9522 O.co2   1  UNL1       -0.5471
     24 O         140.3612  145.9770  162.1724 O.co2   1  UNL1       -0.5471
     25 C         142.9040  137.8115  157.0965 C.ar    1  UNL1        0.1319
     26 N         142.5759  136.4057  157.5039 N.ar    1  UNL1       -0.2282
     27 C         143.3504  135.4740  156.6195 C.ar    1  UNL1        0.1171
     28 C         144.1572  136.3040  155.6656 C.ar    1  UNL1        0.0942
     29 N         143.8814  137.7487  155.9603 N.ar    1  UNL1       -0.3385
     30 H         144.2730  138.5202  155.4906 H       1  UNL1        0.1672
     31 C         143.3229  133.9754  156.6788 C.ar    1  UNL1        0.1006
     32 C         144.3590  133.2371  157.4735 C.ar    1  UNL1        0.0230
     33 C         144.3315  131.7386  157.5328 C.ar    1  UNL1        0.0328
     34 C         143.2680  130.9783  156.7974 C.ar    1  UNL1        0.1592
     35 F         143.2405  129.4797  156.8566 F       1  UNL1       -0.2025
     36 C         142.2319  131.7166  156.0027 C.ar    1  UNL1        0.1284
     37 N         142.2594  133.2151  155.9434 N.ar    1  UNL1       -0.2399
     38 N         140.8124  137.8652  162.7195 N.ar    1  UNL1       -0.2497
     39 C         141.5548  138.9126  161.9437 C.ar    1  UNL1        0.0944
     40 C         140.7462  139.2469  160.7253 C.ar    1  UNL1        0.0439
     41 C         139.5042  138.4060  160.7481 C.ar    1  UNL1        0.1194
     42 N         139.5452  137.5521  161.9807 N.ar    1  UNL1       -0.1679
     43 C         141.9995  138.0610  165.0223 C.3     1  UNL1        0.0284
     44 C         141.2591  137.2405  164.0081 C.3     1  UNL1        0.1276
@<TRIPOS>UNITY_ATOM_ATTR
23 1
charge -1
@<TRIPOS>BOND
     1    43    44    1
     2    44    38    1
     3    38    39   ar
     4    39    40   ar
     5     1    40    1
     6     1    15    1
     7    15    16   ar
     8    16    17   ar
     9    17    21    1
    10    21    22    1
    11    22    23   ar
    12    22    24   ar
    13    17    18   ar
    14    18    19    2
    15    18    20   ar
    16     1     2    1
    17     2     3    1
    18     3    25    1
    19    25    26   ar
    20    26    27   ar
    21    27    31    1
    22    31    32   ar
    23    32    33   ar
    24    33    34   ar
    25    34    35    1
    26    34    36   ar
    27    36    37   ar
    28    27    28   ar
    29    28    29   ar
    30     3     4    1
    31     4     5    1
    32     5     6    2
    33     6     7    1
    34     7     8    2
    35     8     9    1
    36     9    10    1
    37    10    11    2
    38    11    12    1
    39    12    13    2
    40    40    41   ar
    41    41    42   ar
    42    42    38   ar
    43     6     1    1
    44    13     8    1
    45    20    15   ar
    46    29    25   ar
    47    13     5    1
    48    37    31   ar
    49     2    14    1
    50    29    30    1
@<TRIPOS>MOLECULE
*****
 44 50 0 0 0
SMALL
GASTEIGER

@<TRIPOS>ATOM
      1 C         140.5558  142.1060  159.4491 C.3     1  UNL1        0.1707
      2 N         139.2556  141.8254  158.7559 N.3     1  UNL1       -0.2797
      3 C         139.2436  141.4747  157.2975 C.3     1  UNL1        0.1167
      4 C         140.5319  141.4047  156.5324 C.3     1  UNL1        0.0511
      5 C         141.8322  141.6854  157.2256 C.2     1  UNL1       -0.0037
      6 C         141.8441  142.0360  158.6840 C.2     1  UNL1        0.0800
      7 N         143.2692  142.2600  159.0951 N.2     1  UNL1       -0.2519
      8 C         144.1379  142.0478  157.8909 C.2     1  UNL1        0.0627
      9 C         145.6230  142.1321  157.6972 C.3     1  UNL1        0.0717
     10 C         146.2198  141.8612  156.3480 C.2     1  UNL1       -0.0198
     11 C         145.3317  141.5061  155.1925 C.2     1  UNL1       -0.0042
     12 C         143.8467  141.4218  155.3862 C.2     1  UNL1        0.0006
     13 C         143.2498  141.6926  156.7354 C.2     1  UNL1        0.0111
     14 H         138.6788  142.6598  158.8629 H       1  UNL1        0.1246
     15 C         141.5257  142.4528  160.5396 C.ar    1  UNL1        0.2493
     16 N         141.9612  141.5470  161.6531 N.ar    1  UNL1       -0.1282
     17 N         142.9351  142.3007  162.5097 N.ar    1  UNL1       -0.1772
     18 C         143.1013  143.6722  161.9255 C.ar    1  UNL1        0.4392
     19 O         143.9838  144.7590  162.4644 O.2     1  UNL1       -0.2210
     20 O         142.2303  143.7662  160.7079 O.2     1  UNL1       -0.3896
     21 C         143.6219  141.7751  163.7352 C.3     1  UNL1        0.1752
     22 C         144.9622  141.1119  163.6175 C.2     1  UNL1        0.0752
     23 O         145.2139  139.8024  164.3046 O.co2   1  UNL1       -0.5471
     24 O         146.0507  141.7580  162.8128 O.co2   1  UNL1       -0.5471
     25 C         137.9433  141.1941  156.6042 C.ar    1  UNL1        0.1319
     26 N         136.6516  140.8225  157.2699 N.ar    1  UNL1       -0.2282
     27 C         135.6165  140.6345  156.2007 C.ar    1  UNL1        0.1171
     28 C         136.2685  140.8900  154.8742 C.ar    1  UNL1        0.0942
     29 N         137.7066  141.2358  155.1236 N.ar    1  UNL1       -0.3385
     30 H         138.3774  141.4522  154.4362 H       1  UNL1        0.1672
     31 C         134.1812  140.2573  156.4196 C.ar    1  UNL1        0.1006
     32 C         133.0920  141.0107  155.7154 C.ar    1  UNL1        0.0230
     33 C         131.6568  140.6336  155.9342 C.ar    1  UNL1        0.0328
     34 C         131.3108  139.5030  156.8572 C.ar    1  UNL1        0.1592
     35 F         129.8756  139.1258  157.0761 F       1  UNL1       -0.2025
     36 C         132.4001  138.7495  157.5614 C.ar    1  UNL1        0.1284
     37 N         133.8353  139.1267  157.3426 N.ar    1  UNL1       -0.2399
     38 N         138.3038  143.3212  162.3675 N.ar    1  UNL1       -0.2497
     39 C         139.3098  143.5925  161.2883 C.ar    1  UNL1        0.0944
     40 C         139.6044  142.2964  160.5930 C.ar    1  UNL1        0.0439
     41 C         138.7806  141.2242  161.2424 C.ar    1  UNL1        0.1194
     42 N         137.9768  141.8576  162.3391 N.ar    1  UNL1       -0.1679
     43 C         138.0400  144.2626  164.7746 C.3     1  UNL1        0.0284
     44 C         137.7263  144.3356  163.3096 C.3     1  UNL1        0.1276
@<TRIPOS>UNITY_ATOM_ATTR
23 1
charge -1
@<TRIPOS>BOND
     1    43    44    1
     2    44    38    1
     3    38    39   ar
     4    39    40   ar
     5     1    40    1
     6     1    15    1
     7    15    16   ar
     8    16    17   ar
     9    17    21    1
    10    21    22    1
    11    22    23   ar
    12    22    24   ar
    13    17    18   ar
    14    18    19    2
    15    18    20   ar
    16     1     2    1
    17     2     3    1
    18     3    25    1
    19    25    26   ar
    20    26    27   ar
    21    27    31    1
    22    31    32   ar
    23    32    33   ar
    24    33    34   ar
    25    34    35    1
    26    34    36   ar
    27    36    37   ar
    28    27    28   ar
    29    28    29   ar
    30     3     4    1
    31     4     5    1
    32     5     6    2
    33     6     7    1
    34     7     8    2
    35     8     9    1
    36     9    10    1
    37    10    11    2
    38    11    12    1
    39    12    13    2
    40    40    41   ar
    41    41    42   ar
    42    42    38   ar
    43     6     1    1
    44    13     8    1
    45    20    15   ar
    46    29    25   ar
    47    13     5    1
    48    37    31   ar
    49     2    14    1
    50    29    30    1
@<TRIPOS>MOLECULE
*****
 44 50 0 0 0
SMALL
GASTEIGER

@<TRIPOS>ATOM
      1 C         142.2534  140.8875  160.5727 C.3     1  UNL1        0.1707
      2 N         142.5472  139.9307  159.4554 N.3     1  UNL1       -0.2797
      3 C         142.0581  138.5148  159.5325 C.3     1  UNL1        0.1167
      4 C         141.2752  138.0557  160.7268 C.3     1  UNL1        0.0511
      5 C         140.9814  139.0125  161.8440 C.2     1  UNL1       -0.0037
      6 C         141.4705  140.4284  161.7670 C.2     1  UNL1        0.0800
      7 N         141.0304  141.1392  163.0124 N.2     1  UNL1       -0.2519
      8 C         140.2693  140.1626  163.8591 C.2     1  UNL1        0.0627
      9 C         139.6000  140.3003  165.1944 C.3     1  UNL1        0.0717
     10 C         138.9003  139.1237  165.8076 C.2     1  UNL1       -0.0198
     11 C         138.8700  137.8093  165.0854 C.2     1  UNL1       -0.0042
     12 C         139.5394  137.6715  163.7502 C.2     1  UNL1        0.0006
     13 C         140.2390  138.8482  163.1370 C.2     1  UNL1        0.0111
     14 H         143.5622  139.8871  159.3644 H       1  UNL1        0.1246
     15 C         142.2284  142.1569  161.3716 C.ar    1  UNL1        0.2493
     16 N         141.0703  143.1028  161.4878 N.ar    1  UNL1       -0.1282
     17 N         141.4834  144.2337  162.3826 N.ar    1  UNL1       -0.1772
     18 C         142.8970  143.9865  162.8193 C.ar    1  UNL1        0.4392
     19 O         143.7077  144.8682  163.7223 O.2     1  UNL1       -0.2210
     20 O         143.3574  142.7030  162.1944 O.2     1  UNL1       -0.3896
     21 C         140.6324  145.4058  162.7722 C.3     1  UNL1        0.1752
     22 C         139.3232  145.6451  162.0801 C.2     1  UNL1        0.0752
     23 O         138.1125  144.8499  162.4699 O.co2   1  UNL1       -0.5471
     24 O         139.2248  146.6794  160.9983 O.co2   1  UNL1       -0.5471
     25 C         142.3519  137.5580  158.4152 C.ar    1  UNL1        0.1319
     26 N         142.9416  136.1865  158.5612 N.ar    1  UNL1       -0.2282
     27 C         143.0617  135.5855  157.1921 C.ar    1  UNL1        0.1171
     28 C         142.5462  136.5856  156.2000 C.ar    1  UNL1        0.0942
     29 N         142.1075  137.8046  156.9560 N.ar    1  UNL1       -0.3385
     30 H         141.7262  138.6229  156.5633 H       1  UNL1        0.1672
     31 C         143.6024  134.2236  156.8714 C.ar    1  UNL1        0.1006
     32 C         143.2802  133.5795  155.5556 C.ar    1  UNL1        0.0230
     33 C         143.8209  132.2176  155.2349 C.ar    1  UNL1        0.0328
     34 C         144.6837  131.4998  156.2300 C.ar    1  UNL1        0.1592
     35 F         145.2244  130.1378  155.9093 F       1  UNL1       -0.2025
     36 C         145.0059  132.1439  157.5458 C.ar    1  UNL1        0.1284
     37 N         144.4653  133.5058  157.8665 N.ar    1  UNL1       -0.2399
     38 N         144.8032  142.7033  158.2778 N.ar    1  UNL1       -0.2497
     39 C         144.4280  141.5573  159.1700 C.ar    1  UNL1        0.0944
     40 C         143.0276  141.7875  159.6559 C.ar    1  UNL1        0.0439
     41 C         142.5374  143.0757  159.0640 C.ar    1  UNL1        0.1194
     42 N         143.6348  143.6417  158.2123 N.ar    1  UNL1       -0.1679
     43 C         146.5055  141.9461  156.4671 C.3     1  UNL1        0.0284
     44 C         146.1164  142.8799  157.5745 C.3     1  UNL1        0.1276
@<TRIPOS>UNITY_ATOM_ATTR
23 1
charge -1
@<TRIPOS>BOND
     1    43    44    1
     2    44    38    1
     3    38    39   ar
     4    39    40   ar
     5     1    40    1
     6     1    15    1
     7    15    16   ar
     8    16    17   ar
     9    17    21    1
    10    21    22    1
    11    22    23   ar
    12    22    24   ar
    13    17    18   ar
    14    18    19    2
    15    18    20   ar
    16     1     2    1
    17     2     3    1
    18     3    25    1
    19    25    26   ar
    20    26    27   ar
    21    27    31    1
    22    31    32   ar
    23    32    33   ar
    24    33    34   ar
    25    34    35    1
    26    34    36   ar
    27    36    37   ar
    28    27    28   ar
    29    28    29   ar
    30     3     4    1
    31     4     5    1
    32     5     6    2
    33     6     7    1
    34     7     8    2
    35     8     9    1
    36     9    10    1
    37    10    11    2
    38    11    12    1
    39    12    13    2
    40    40    41   ar
    41    41    42   ar
    42    42    38   ar
    43     6     1    1
    44    13     8    1
    45    20    15   ar
    46    29    25   ar
    47    13     5    1
    48    37    31   ar
    49     2    14    1
    50    29    30    1
@<TRIPOS>MOLECULE
*****
 44 50 0 0 0
SMALL
GASTEIGER

@<TRIPOS>ATOM
      1 C         140.0136  141.4050  159.5920 C.3     1  UNL1        0.1707
      2 N         140.0200  140.5412  158.3658 N.3     1  UNL1       -0.2797
      3 C         139.7785  139.0657  158.4865 C.3     1  UNL1        0.1167
      4 C         139.5306  138.4541  159.8336 C.3     1  UNL1        0.0511
      5 C         139.5242  139.3179  161.0598 C.2     1  UNL1       -0.0037
      6 C         139.7657  140.7934  160.9390 C.2     1  UNL1        0.0800
      7 N         139.7007  141.3878  162.3147 N.2     1  UNL1       -0.2519
      8 C         139.4190  140.2797  163.2857 C.2     1  UNL1        0.0627
      9 C         139.2478  140.2703  164.7758 C.3     1  UNL1        0.0717
     10 C         138.9675  138.9816  165.4904 C.2     1  UNL1       -0.0198
     11 C         138.8584  137.7023  164.7148 C.2     1  UNL1       -0.0042
     12 C         139.0297  137.7117  163.2247 C.2     1  UNL1        0.0006
     13 C         139.3100  139.0004  162.5101 C.2     1  UNL1        0.0111
     14 H         140.9352  140.6551  157.9301 H       1  UNL1        0.1246
     15 C         140.1042  142.6290  160.4546 C.ar    1  UNL1        0.2493
     16 N         141.3003  143.0602  161.2502 N.ar    1  UNL1       -0.1282
     17 N         140.9498  144.3343  161.9603 N.ar    1  UNL1       -0.1772
     18 C         139.5371  144.6903  161.6034 C.ar    1  UNL1        0.4392
     19 O         138.7800  145.8897  162.0914 O.2     1  UNL1       -0.2210
     20 O         139.0145  143.6363  160.6728 O.2     1  UNL1       -0.3896
     21 C         141.8535  145.1151  162.8678 C.3     1  UNL1        0.1752
     22 C         143.1558  144.5235  163.3196 C.2     1  UNL1        0.0752
     23 O         143.2212  143.7425  164.5986 O.co2   1  UNL1       -0.5471
     24 O         144.3927  144.7128  162.4925 O.co2   1  UNL1       -0.5471
     25 C         139.7849  138.2018  157.2602 C.ar    1  UNL1        0.1319
     26 N         140.7456  137.0864  156.9727 N.ar    1  UNL1       -0.2282
     27 C         140.3862  136.4969  155.6410 C.ar    1  UNL1        0.1171
     28 C         139.2033  137.2480  155.1056 C.ar    1  UNL1        0.0942
     29 N         138.8317  138.3017  156.1064 N.ar    1  UNL1       -0.3385
     30 H         138.0920  138.9458  156.0209 H       1  UNL1        0.1672
     31 C         141.0867  135.3564  154.9636 C.ar    1  UNL1        0.1006
     32 C         141.0538  135.2377  153.4687 C.ar    1  UNL1        0.0230
     33 C         141.7543  134.0974  152.7913 C.ar    1  UNL1        0.0328
     34 C         142.4876  133.0757  153.6089 C.ar    1  UNL1        0.1592
     35 F         143.1881  131.9353  152.9315 F       1  UNL1       -0.2025
     36 C         142.5204  133.1944  155.1038 C.ar    1  UNL1        0.1284
     37 N         141.8200  134.3348  155.7812 N.ar    1  UNL1       -0.2399
     38 N         139.9882  144.0941  156.7932 N.ar    1  UNL1       -0.2497
     39 C         139.2683  143.1434  157.7031 C.ar    1  UNL1        0.0944
     40 C         140.2929  142.4417  158.5446 C.ar    1  UNL1        0.0439
     41 C         141.6459  142.9589  158.1547 C.ar    1  UNL1        0.1194
     42 N         141.4576  143.9801  157.0722 N.ar    1  UNL1       -0.1679
     43 C         137.9387  144.7535  155.3389 C.3     1  UNL1        0.0284
     44 C         139.3505  144.9999  155.7817 C.3     1  UNL1        0.1276
@<TRIPOS>UNITY_ATOM_ATTR
23 1
charge -1
@<TRIPOS>BOND
     1    43    44    1
     2    44    38    1
     3    38    39   ar
     4    39    40   ar
     5     1    40    1
     6     1    15    1
     7    15    16   ar
     8    16    17   ar
     9    17    21    1
    10    21    22    1
    11    22    23   ar
    12    22    24   ar
    13    17    18   ar
    14    18    19    2
    15    18    20   ar
    16     1     2    1
    17     2     3    1
    18     3    25    1
    19    25    26   ar
    20    26    27   ar
    21    27    31    1
    22    31    32   ar
    23    32    33   ar
    24    33    34   ar
    25    34    35    1
    26    34    36   ar
    27    36    37   ar
    28    27    28   ar
    29    28    29   ar
    30     3     4    1
    31     4     5    1
    32     5     6    2
    33     6     7    1
    34     7     8    2
    35     8     9    1
    36     9    10    1
    37    10    11    2
    38    11    12    1
    39    12    13    2
    40    40    41   ar
    41    41    42   ar
    42    42    38   ar
    43     6     1    1
    44    13     8    1
    45    20    15   ar
    46    29    25   ar
    47    13     5    1
    48    37    31   ar
    49     2    14    1
    50    29    30    1
@<TRIPOS>MOLECULE
*****
 44 50 0 0 0
SMALL
GASTEIGER

@<TRIPOS>ATOM
      1 C         141.5840  141.4576  159.6444 C.3     1  UNL1        0.1707
      2 N         142.1009  140.1796  159.0532 N.3     1  UNL1       -0.2797
      3 C         142.3093  140.0690  157.5719 C.3     1  UNL1        0.1167
      4 C         142.0008  141.2363  156.6818 C.3     1  UNL1        0.0511
      5 C         141.4838  142.5142  157.2730 C.2     1  UNL1       -0.0037
      6 C         141.2755  142.6249  158.7543 C.2     1  UNL1        0.0800
      7 N         140.7578  144.0018  159.0480 N.2     1  UNL1       -0.2519
      8 C         140.6463  144.7421  157.7481 C.2     1  UNL1        0.0627
      9 C         140.1941  146.1345  157.4217 C.3     1  UNL1        0.0717
     10 C         140.1907  146.6076  155.9983 C.2     1  UNL1       -0.0198
     11 C         140.6394  145.6882  154.9013 C.2     1  UNL1       -0.0042
     12 C         141.0916  144.2958  155.2277 C.2     1  UNL1        0.0006
     13 C         141.0950  143.8227  156.6511 C.2     1  UNL1        0.0111
     14 H         141.4409  139.4467  159.3133 H       1  UNL1        0.1246
     15 C         141.1180  142.4499  160.6683 C.ar    1  UNL1        0.2493
     16 N         139.6992  142.6673  161.1035 N.ar    1  UNL1       -0.1282
     17 N         139.6934  143.7509  162.1408 N.ar    1  UNL1       -0.1772
     18 C         141.1087  144.2030  162.3466 C.ar    1  UNL1        0.4392
     19 O         141.5637  145.2717  163.2959 O.2     1  UNL1       -0.2210
     20 O         141.9892  143.3990  161.4365 O.2     1  UNL1       -0.3896
     21 C         138.4846  144.2878  162.8481 C.3     1  UNL1        0.1752
     22 C         138.2497  143.9531  164.2913 C.2     1  UNL1        0.0752
     23 O         137.7463  142.5928  164.6734 O.co2   1  UNL1       -0.5471
     24 O         138.5181  144.9788  165.3524 O.co2   1  UNL1       -0.5471
     25 C         142.8262  138.7909  156.9806 C.ar    1  UNL1        0.1319
     26 N         142.2799  137.4174  157.2352 N.ar    1  UNL1       -0.2282
     27 C         143.0962  136.4397  156.4429 C.ar    1  UNL1        0.1171
     28 C         144.1470  137.2090  155.6986 C.ar    1  UNL1        0.0942
     29 N         143.9801  138.6622  156.0309 N.ar    1  UNL1       -0.3385
     30 H         144.5312  139.4016  155.6863 H       1  UNL1        0.1672
     31 C         142.8967  134.9535  156.4020 C.ar    1  UNL1        0.1006
     32 C         143.8200  134.0516  157.1662 C.ar    1  UNL1        0.0230
     33 C         143.6205  132.5655  157.1254 C.ar    1  UNL1        0.0328
     34 C         142.4978  131.9814  156.3204 C.ar    1  UNL1        0.1592
     35 F         142.2983  130.4952  156.2795 F       1  UNL1       -0.2025
     36 C         141.5745  132.8833  155.5562 C.ar    1  UNL1        0.1284
     37 N         141.7740  134.3694  155.5970 N.ar    1  UNL1       -0.2399
     38 N         142.6558  139.6251  162.8938 N.ar    1  UNL1       -0.2497
     39 C         142.9487  140.5659  161.7627 C.ar    1  UNL1        0.0944
     40 C         141.7307  140.6349  160.8901 C.ar    1  UNL1        0.0439
     41 C         140.6850  139.7369  161.4818 C.ar    1  UNL1        0.1194
     42 N         141.2568  139.1128  162.7202 N.ar    1  UNL1       -0.1679
     43 C         144.9843  139.8301  164.0279 C.3     1  UNL1        0.0284
     44 C         143.5968  139.2607  164.0037 C.3     1  UNL1        0.1276
@<TRIPOS>UNITY_ATOM_ATTR
23 1
charge -1
@<TRIPOS>BOND
     1    43    44    1
     2    44    38    1
     3    38    39   ar
     4    39    40   ar
     5     1    40    1
     6     1    15    1
     7    15    16   ar
     8    16    17   ar
     9    17    21    1
    10    21    22    1
    11    22    23   ar
    12    22    24   ar
    13    17    18   ar
    14    18    19    2
    15    18    20   ar
    16     1     2    1
    17     2     3    1
    18     3    25    1
    19    25    26   ar
    20    26    27   ar
    21    27    31    1
    22    31    32   ar
    23    32    33   ar
    24    33    34   ar
    25    34    35    1
    26    34    36   ar
    27    36    37   ar
    28    27    28   ar
    29    28    29   ar
    30     3     4    1
    31     4     5    1
    32     5     6    2
    33     6     7    1
    34     7     8    2
    35     8     9    1
    36     9    10    1
    37    10    11    2
    38    11    12    1
    39    12    13    2
    40    40    41   ar
    41    41    42   ar
    42    42    38   ar
    43     6     1    1
    44    13     8    1
    45    20    15   ar
    46    29    25   ar
    47    13     5    1
    48    37    31   ar
    49     2    14    1
    50    29    30    1
@<TRIPOS>MOLECULE
*****
 44 50 0 0 0
SMALL
GASTEIGER

@<TRIPOS>ATOM
      1 C         140.5448  140.3332  159.9321 C.3     1  UNL1        0.1707
      2 N         141.0069  139.5759  158.7226 N.3     1  UNL1       -0.2797
      3 C         142.2840  138.7908  158.7720 C.3     1  UNL1        0.1167
      4 C         143.0991  138.7630  160.0310 C.3     1  UNL1        0.0511
      5 C         142.6370  139.5203  161.2405 C.2     1  UNL1       -0.0037
      6 C         141.3598  140.3054  161.1910 C.2     1  UNL1        0.0800
      7 N         141.1590  140.9485  162.5312 N.2     1  UNL1       -0.2519
      8 C         142.3120  140.5609  163.4089 C.2     1  UNL1        0.0627
      9 C         142.6481  140.8977  164.8314 C.3     1  UNL1        0.0717
     10 C         143.8977  140.3518  165.4562 C.2     1  UNL1       -0.0198
     11 C         144.8112  139.4691  164.6584 C.2     1  UNL1       -0.0042
     12 C         144.4750  139.1323  163.2359 C.2     1  UNL1        0.0006
     13 C         143.2254  139.6782  162.6112 C.2     1  UNL1        0.0111
     14 H         141.1088  140.2568  157.9700 H       1  UNL1        0.1246
     15 C         139.6974  141.2054  160.8104 C.ar    1  UNL1        0.2493
     16 N         139.8802  142.6777  161.0305 N.ar    1  UNL1       -0.1282
     17 N         138.8142  143.1405  161.9789 N.ar    1  UNL1       -0.1772
     18 C         137.9725  141.9541  162.3449 C.ar    1  UNL1        0.4392
     19 O         136.7922  141.9623  163.2706 O.2     1  UNL1       -0.2210
     20 O         138.5184  140.7581  161.6227 O.2     1  UNL1       -0.3896
     21 C         138.6234  144.5434  162.4743 C.3     1  UNL1        0.1752
     22 C         139.6000  145.6145  162.0881 C.2     1  UNL1        0.0752
     23 O         140.9514  145.6666  162.7371 O.co2   1  UNL1       -0.5471
     24 O         139.2253  146.6334  161.0531 O.co2   1  UNL1       -0.5471
     25 C         142.7462  138.0335  157.5624 C.ar    1  UNL1        0.1319
     26 N         142.3094  136.6545  157.1657 N.ar    1  UNL1       -0.2282
     27 C         143.0195  136.2909  155.8954 C.ar    1  UNL1        0.1171
     28 C         143.8952  137.4452  155.5072 C.ar    1  UNL1        0.0942
     29 N         143.7262  138.5222  156.5375 N.ar    1  UNL1       -0.3385
     30 H         144.1791  139.3963  156.5405 H       1  UNL1        0.1672
     31 C         142.8786  134.9996  155.1451 C.ar    1  UNL1        0.1006
     32 C         142.1257  134.9641  153.8482 C.ar    1  UNL1        0.0230
     33 C         141.9848  133.6729  153.0979 C.ar    1  UNL1        0.0328
     34 C         142.5969  132.4173  153.6444 C.ar    1  UNL1        0.1592
     35 F         142.4560  131.1261  152.8941 F       1  UNL1       -0.2025
     36 C         143.3498  132.4529  154.9413 C.ar    1  UNL1        0.1284
     37 N         143.4907  133.7440  155.6916 N.ar    1  UNL1       -0.2399
     38 N         138.1082  141.7761  157.2775 N.ar    1  UNL1       -0.2497
     39 C         139.3982  141.8345  158.0409 C.ar    1  UNL1        0.0944
     40 C         139.4354  140.6639  158.9782 C.ar    1  UNL1        0.0439
     41 C         138.1685  139.8821  158.7940 C.ar    1  UNL1        0.1194
     42 N         137.3483  140.5695  157.7430 N.ar    1  UNL1       -0.1679
     43 C         137.3360  142.2743  154.8474 C.3     1  UNL1        0.0284
     44 C         137.6574  142.7529  156.2322 C.3     1  UNL1        0.1276
@<TRIPOS>UNITY_ATOM_ATTR
23 1
charge -1
@<TRIPOS>BOND
     1    43    44    1
     2    44    38    1
     3    38    39   ar
     4    39    40   ar
     5     1    40    1
     6     1    15    1
     7    15    16   ar
     8    16    17   ar
     9    17    21    1
    10    21    22    1
    11    22    23   ar
    12    22    24   ar
    13    17    18   ar
    14    18    19    2
    15    18    20   ar
    16     1     2    1
    17     2     3    1
    18     3    25    1
    19    25    26   ar
    20    26    27   ar
    21    27    31    1
    22    31    32   ar
    23    32    33   ar
    24    33    34   ar
    25    34    35    1
    26    34    36   ar
    27    36    37   ar
    28    27    28   ar
    29    28    29   ar
    30     3     4    1
    31     4     5    1
    32     5     6    2
    33     6     7    1
    34     7     8    2
    35     8     9    1
    36     9    10    1
    37    10    11    2
    38    11    12    1
    39    12    13    2
    40    40    41   ar
    41    41    42   ar
    42    42    38   ar
    43     6     1    1
    44    13     8    1
    45    20    15   ar
    46    29    25   ar
    47    13     5    1
    48    37    31   ar
    49     2    14    1
    50    29    30    1
