@<TRIPOS>MOLECULE
*****
 35 39 0 0 0
SMALL
GASTEIGER

@<TRIPOS>ATOM
      1 N         138.2730  141.0384  162.8021 N.3     1  UNL1       -0.2703
      2 C         138.4364  140.8781  161.3197 C.3     1  UNL1        0.0727
      3 C         138.9548  142.0185  160.4947 C.3     1  UNL1        0.0260
      4 C         139.3098  143.3192  161.1520 C.3     1  UNL1        0.0737
      5 C         139.1463  143.4796  162.6344 C.3     1  UNL1        0.0260
      6 C         138.6279  142.3392  163.4594 C.3     1  UNL1        0.0727
      7 C         139.7039  144.6720  161.6665 C.3     1  UNL1        0.0306
      8 C         140.1628  145.4960  160.5000 C.3     1  UNL1        0.1001
      9 N         140.0523  144.6524  159.2646 N.am    1  UNL1       -0.2425
     10 C         139.5251  143.3071  159.6675 C.2     1  UNL1        0.2296
     11 O         139.2597  142.1525  158.7476 O.2     1  UNL1       -0.2745
     12 C         140.4066  145.0791  157.8710 C.ar    1  UNL1        0.1574
     13 C         141.5035  144.3763  157.1275 C.ar    1  UNL1        0.0414
     14 C         141.8579  144.8031  155.7338 C.ar    1  UNL1        0.0651
     15 C         141.1154  145.9327  155.0837 C.ar    1  UNL1        0.2766
     16 O         141.4698  146.3595  153.6900 O.2     1  UNL1       -0.2655
     17 N         140.0185  146.6356  155.8273 N.ar    1  UNL1       -0.2134
     18 C         139.2760  147.7653  155.1771 C.3     1  UNL1        0.1571
     19 N         139.6642  146.2088  157.2209 N.ar    1  UNL1       -0.1513
     20 C         137.7545  139.8980  163.6272 C.3     1  UNL1        0.1063
     21 C         138.6960  139.1012  164.4808 C.3     1  UNL1        0.1498
     22 O         139.2186  137.7830  163.9918 O.3     1  UNL1       -0.3786
     23 H         139.8101  137.4019  164.6595 H       1  UNL1        0.2108
     24 C         137.3545  138.0914  166.9669 C.3     1  UNL1        0.0519
     25 C         138.4440  139.1176  167.0666 C.ar    1  UNL1        0.0593
     26 N         138.8627  139.6389  168.4093 N.ar    1  UNL1       -0.2310
     27 C         139.9522  140.6651  168.5090 C.ar    1  UNL1        0.1668
     28 C         140.6229  141.1700  167.2659 C.ar    1  UNL1        0.0387
     29 C         140.2042  140.6487  165.9232 C.ar    1  UNL1        0.0024
     30 C         139.1147  139.6225  165.8236 C.ar    1  UNL1        0.0193
     31 N         140.3710  141.1864  169.8517 N.ar    1  UNL1       -0.1708
     32 C         141.6933  140.9458  170.5177 C.ar    1  UNL1        0.2272
     33 N         141.6806  141.6505  171.8417 N.ar    1  UNL1       -0.1044
     34 N         140.3503  142.3268  171.9941 N.ar    1  UNL1       -0.0222
     35 N         139.5410  142.0399  170.7642 N.ar    1  UNL1       -0.0371
@<TRIPOS>BOND
     1    24    25    1
     2    25    26   ar
     3    26    27   ar
     4    27    31    1
     5    31    32   ar
     6    32    33   ar
     7    33    34   ar
     8    34    35   ar
     9    27    28   ar
    10    28    29   ar
    11    29    30   ar
    12    30    21    1
    13    21    22    1
    14    21    20    1
    15    20     1    1
    16     1     2    1
    17     2     3    1
    18     3     4    1
    19     4     5    1
    20     5     6    1
    21     4     7    1
    22     7     8    1
    23     8     9    1
    24     9    12    1
    25    12    13   ar
    26    13    14   ar
    27    14    15   ar
    28    15    16    2
    29    15    17   ar
    30    17    18    1
    31    17    19   ar
    32     9    10   am
    33    10    11    2
    34    30    25   ar
    35     6     1    1
    36    19    12   ar
    37    35    31   ar
    38    10     4    1
    39    22    23    1
@<TRIPOS>MOLECULE
*****
 35 39 0 0 0
SMALL
GASTEIGER

@<TRIPOS>ATOM
      1 N         144.0457  141.6604  160.7821 N.3     1  UNL1       -0.2703
      2 C         143.5256  140.2617  160.9334 C.3     1  UNL1        0.0727
      3 C         143.2947  139.4120  159.7191 C.3     1  UNL1        0.0260
      4 C         143.5838  139.9610  158.3535 C.3     1  UNL1        0.0737
      5 C         144.1039  141.3598  158.2022 C.3     1  UNL1        0.0260
      6 C         144.3349  142.2094  159.4165 C.3     1  UNL1        0.0727
      7 C         143.8261  140.3714  156.9312 C.3     1  UNL1        0.0306
      8 C         143.4620  139.2156  156.0468 C.3     1  UNL1        0.1001
      9 N         142.9947  138.0910  156.9227 N.am    1  UNL1       -0.2425
     10 C         143.0700  138.5517  158.3482 C.2     1  UNL1        0.2296
     11 O         142.6970  137.7448  159.5564 O.2     1  UNL1       -0.2745
     12 C         142.5332  136.7427  156.4551 C.ar    1  UNL1        0.1574
     13 C         141.4688  136.6373  155.4035 C.ar    1  UNL1        0.0414
     14 C         141.0073  135.2889  154.9359 C.ar    1  UNL1        0.0651
     15 C         141.6102  134.0457  155.5198 C.ar    1  UNL1        0.2766
     16 O         141.1487  132.6972  155.0522 O.2     1  UNL1       -0.2655
     17 N         142.6747  134.1510  156.5715 N.ar    1  UNL1       -0.2134
     18 C         143.2777  132.9078  157.1554 C.3     1  UNL1        0.1571
     19 N         143.1362  135.4995  157.0390 N.ar    1  UNL1       -0.1513
     20 C         144.2767  142.5102  161.9965 C.3     1  UNL1        0.1063
     21 C         144.9472  141.9258  163.2043 C.3     1  UNL1        0.1498
     22 O         146.4375  141.7566  163.2267 O.3     1  UNL1       -0.3786
     23 H         146.7061  141.3683  164.0740 H       1  UNL1        0.2108
     24 C         144.5361  143.8308  165.4851 C.3     1  UNL1        0.0519
     25 C         143.9218  142.4631  165.5303 C.ar    1  UNL1        0.0593
     26 N         143.1021  142.0479  166.7158 N.ar    1  UNL1       -0.2310
     27 C         142.4879  140.6802  166.7610 C.ar    1  UNL1        0.1668
     28 C         142.6934  139.7277  165.6206 C.ar    1  UNL1        0.0387
     29 C         143.5132  140.1429  164.4351 C.ar    1  UNL1        0.0024
     30 C         144.1274  141.5106  164.3899 C.ar    1  UNL1        0.0193
     31 N         141.6680  140.2650  167.9466 N.ar    1  UNL1       -0.1708
     32 C         140.1739  140.3403  168.0553 C.ar    1  UNL1        0.2272
     33 N         139.7808  139.8234  169.4075 N.ar    1  UNL1       -0.1044
     34 N         141.0321  139.4286  170.1344 N.ar    1  UNL1       -0.0222
     35 N         142.1984  139.7015  169.2316 N.ar    1  UNL1       -0.0371
@<TRIPOS>BOND
     1    24    25    1
     2    25    26   ar
     3    26    27   ar
     4    27    31    1
     5    31    32   ar
     6    32    33   ar
     7    33    34   ar
     8    34    35   ar
     9    27    28   ar
    10    28    29   ar
    11    29    30   ar
    12    30    21    1
    13    21    22    1
    14    21    20    1
    15    20     1    1
    16     1     2    1
    17     2     3    1
    18     3     4    1
    19     4     5    1
    20     5     6    1
    21     4     7    1
    22     7     8    1
    23     8     9    1
    24     9    12    1
    25    12    13   ar
    26    13    14   ar
    27    14    15   ar
    28    15    16    2
    29    15    17   ar
    30    17    18    1
    31    17    19   ar
    32     9    10   am
    33    10    11    2
    34    30    25   ar
    35     6     1    1
    36    19    12   ar
    37    35    31   ar
    38    10     4    1
    39    22    23    1
@<TRIPOS>MOLECULE
*****
 35 39 0 0 0
SMALL
GASTEIGER

@<TRIPOS>ATOM
      1 N         139.8078  138.6445  162.2103 N.3     1  UNL1       -0.2703
      2 C         141.2258  139.1151  162.0773 C.3     1  UNL1        0.0727
      3 C         141.8139  139.3493  160.7175 C.3     1  UNL1        0.0260
      4 C         140.9839  139.1130  159.4906 C.3     1  UNL1        0.0737
      5 C         139.5659  138.6424  159.6235 C.3     1  UNL1        0.0260
      6 C         138.9778  138.4082  160.9834 C.3     1  UNL1        0.0727
      7 C         140.2795  138.9205  158.1803 C.3     1  UNL1        0.0306
      8 C         141.2399  139.2694  157.0820 C.3     1  UNL1        0.1001
      9 N         142.5379  139.6775  157.7137 N.am    1  UNL1       -0.2425
     10 C         142.3796  139.5808  159.2021 C.2     1  UNL1        0.2296
     11 O         143.4322  139.8965  160.2230 O.2     1  UNL1       -0.2745
     12 C         143.7765  140.1068  156.9848 C.ar    1  UNL1        0.1574
     13 C         144.1631  139.4332  155.7015 C.ar    1  UNL1        0.0414
     14 C         145.4017  139.8626  154.9726 C.ar    1  UNL1        0.0651
     15 C         146.2538  140.9656  155.5269 C.ar    1  UNL1        0.2766
     16 O         147.4925  141.3950  154.7979 O.2     1  UNL1       -0.2655
     17 N         145.8673  141.6393  156.8102 N.ar    1  UNL1       -0.2134
     18 C         146.7194  142.7423  157.3645 C.3     1  UNL1        0.1571
     19 N         144.6286  141.2098  157.5391 N.ar    1  UNL1       -0.1513
     20 C         139.2197  138.4103  163.5702 C.3     1  UNL1        0.1063
     21 C         138.5133  139.5245  164.2839 C.3     1  UNL1        0.1498
     22 O         137.3638  140.2276  163.6248 O.3     1  UNL1       -0.3786
     23 H         137.0234  140.9161  164.2173 H       1  UNL1        0.2108
     24 C         137.6593  137.9287  166.6764 C.3     1  UNL1        0.0519
     25 C         138.5293  139.1378  166.8531 C.ar    1  UNL1        0.0593
     26 N         138.9723  139.5489  168.2259 N.ar    1  UNL1       -0.2310
     27 C         139.8423  140.7580  168.4025 C.ar    1  UNL1        0.1668
     28 C         140.2693  141.5559  167.2062 C.ar    1  UNL1        0.0387
     29 C         139.8263  141.1448  165.8334 C.ar    1  UNL1        0.0024
     30 C         138.9563  139.9357  165.6568 C.ar    1  UNL1        0.0193
     31 N         140.2854  141.1692  169.7753 N.ar    1  UNL1       -0.1708
     32 C         141.4532  140.6068  170.5302 C.ar    1  UNL1        0.2272
     33 N         141.5280  141.3050  171.8557 N.ar    1  UNL1       -0.1044
     34 N         140.4063  142.2988  171.9200 N.ar    1  UNL1       -0.0222
     35 N         139.6383  142.2149  170.6343 N.ar    1  UNL1       -0.0371
@<TRIPOS>BOND
     1    24    25    1
     2    25    26   ar
     3    26    27   ar
     4    27    31    1
     5    31    32   ar
     6    32    33   ar
     7    33    34   ar
     8    34    35   ar
     9    27    28   ar
    10    28    29   ar
    11    29    30   ar
    12    30    21    1
    13    21    22    1
    14    21    20    1
    15    20     1    1
    16     1     2    1
    17     2     3    1
    18     3     4    1
    19     4     5    1
    20     5     6    1
    21     4     7    1
    22     7     8    1
    23     8     9    1
    24     9    12    1
    25    12    13   ar
    26    13    14   ar
    27    14    15   ar
    28    15    16    2
    29    15    17   ar
    30    17    18    1
    31    17    19   ar
    32     9    10   am
    33    10    11    2
    34    30    25   ar
    35     6     1    1
    36    19    12   ar
    37    35    31   ar
    38    10     4    1
    39    22    23    1
@<TRIPOS>MOLECULE
*****
 35 39 0 0 0
SMALL
GASTEIGER

@<TRIPOS>ATOM
      1 N         141.3430  139.3734  162.2795 N.3     1  UNL1       -0.2703
      2 C         140.8599  138.5776  161.1034 C.3     1  UNL1        0.0727
      3 C         139.9922  139.2252  160.0653 C.3     1  UNL1        0.0260
      4 C         139.6076  140.6684  160.2033 C.3     1  UNL1        0.0737
      5 C         140.0907  141.4642  161.3794 C.3     1  UNL1        0.0260
      6 C         140.9585  140.8167  162.4175 C.3     1  UNL1        0.0727
      7 C         139.1436  142.0949  160.2069 C.3     1  UNL1        0.0306
      8 C         138.3007  142.3113  158.9850 C.3     1  UNL1        0.1001
      9 N         138.2438  141.0185  158.2263 N.am    1  UNL1       -0.2425
     10 C         139.0514  140.0032  158.9792 C.2     1  UNL1        0.2296
     11 O         139.2655  138.5737  158.5785 O.2     1  UNL1       -0.2745
     12 C         137.5083  140.7825  156.9405 C.ar    1  UNL1        0.1574
     13 C         138.2483  140.8159  155.6362 C.ar    1  UNL1        0.0414
     14 C         137.5128  140.5799  154.3504 C.ar    1  UNL1        0.0651
     15 C         136.0373  140.3105  154.3688 C.ar    1  UNL1        0.2766
     16 O         135.3018  140.0745  153.0830 O.2     1  UNL1       -0.2655
     17 N         135.2973  140.2771  155.6732 N.ar    1  UNL1       -0.2134
     18 C         133.8218  140.0078  155.6917 C.3     1  UNL1        0.1571
     19 N         136.0328  140.5131  156.9590 N.ar    1  UNL1       -0.1513
     20 C         142.2108  138.7259  163.3177 C.3     1  UNL1        0.1063
     21 C         141.5865  138.0612  164.5086 C.3     1  UNL1        0.1498
     22 O         141.1908  136.6160  164.4392 O.3     1  UNL1       -0.3786
     23 H         140.8053  136.3452  165.2871 H       1  UNL1        0.2108
     24 C         138.8523  139.1217  165.1409 C.3     1  UNL1        0.0519
     25 C         139.9907  139.3719  166.0852 C.ar    1  UNL1        0.0593
     26 N         139.7619  140.1524  167.3455 N.ar    1  UNL1       -0.2310
     27 C         140.9003  140.4027  168.2897 C.ar    1  UNL1        0.1668
     28 C         142.2673  139.8724  167.9735 C.ar    1  UNL1        0.0387
     29 C         142.4961  139.0919  166.7132 C.ar    1  UNL1        0.0024
     30 C         141.3578  138.8417  165.7690 C.ar    1  UNL1        0.0193
     31 N         140.6716  141.1832  169.5501 N.ar    1  UNL1       -0.1708
     32 C         141.1208  140.7880  170.9256 C.ar    1  UNL1        0.2272
     33 N         140.6804  141.8564  171.8819 N.ar    1  UNL1       -0.1044
     34 N         139.9589  142.9119  171.0974 N.ar    1  UNL1       -0.0222
     35 N         139.9535  142.4958  169.6563 N.ar    1  UNL1       -0.0371
@<TRIPOS>BOND
     1    24    25    1
     2    25    26   ar
     3    26    27   ar
     4    27    31    1
     5    31    32   ar
     6    32    33   ar
     7    33    34   ar
     8    34    35   ar
     9    27    28   ar
    10    28    29   ar
    11    29    30   ar
    12    30    21    1
    13    21    22    1
    14    21    20    1
    15    20     1    1
    16     1     2    1
    17     2     3    1
    18     3     4    1
    19     4     5    1
    20     5     6    1
    21     4     7    1
    22     7     8    1
    23     8     9    1
    24     9    12    1
    25    12    13   ar
    26    13    14   ar
    27    14    15   ar
    28    15    16    2
    29    15    17   ar
    30    17    18    1
    31    17    19   ar
    32     9    10   am
    33    10    11    2
    34    30    25   ar
    35     6     1    1
    36    19    12   ar
    37    35    31   ar
    38    10     4    1
    39    22    23    1
@<TRIPOS>MOLECULE
*****
 35 39 0 0 0
SMALL
GASTEIGER

@<TRIPOS>ATOM
      1 N         141.9730  138.0996  161.8816 N.3     1  UNL1       -0.2703
      2 C         142.6748  138.8697  162.9607 C.3     1  UNL1        0.0727
      3 C         141.9697  139.1643  164.2514 C.3     1  UNL1        0.0260
      4 C         140.5629  138.6888  164.4631 C.3     1  UNL1        0.0737
      5 C         139.8611  137.9187  163.3840 C.3     1  UNL1        0.0260
      6 C         140.5662  137.6241  162.0932 C.3     1  UNL1        0.0727
      7 C         139.1636  138.2801  164.8166 C.3     1  UNL1        0.0306
      8 C         138.8692  138.7826  166.1990 C.3     1  UNL1        0.1001
      9 N         140.0866  139.5017  166.6999 N.am    1  UNL1       -0.2425
     10 C         141.1333  139.4438  165.6270 C.2     1  UNL1        0.2296
     11 O         142.5090  140.0366  165.7044 O.2     1  UNL1       -0.2745
     12 C         140.2318  140.1627  168.0384 C.ar    1  UNL1        0.1574
     13 C         139.0907  140.1440  169.0118 C.ar    1  UNL1        0.0414
     14 C         139.2359  140.8050  170.3505 C.ar    1  UNL1        0.0651
     15 C         140.5221  141.4848  170.7157 C.ar    1  UNL1        0.2766
     16 O         140.6673  142.1459  172.0544 O.2     1  UNL1       -0.2655
     17 N         141.6633  141.5036  169.7423 N.ar    1  UNL1       -0.2134
     18 C         142.9496  142.1833  170.1076 C.3     1  UNL1        0.1571
     19 N         141.5180  140.8425  168.4037 N.ar    1  UNL1       -0.1513
     20 C         142.6781  137.8050  160.5908 C.3     1  UNL1        0.1063
     21 C         142.7193  138.8397  159.5056 C.3     1  UNL1        0.1498
     22 O         143.3557  138.5176  158.1860 O.3     1  UNL1       -0.3786
     23 H         143.2978  139.2900  157.6020 H       1  UNL1        0.2108
     24 C         139.8234  139.3328  158.8966 C.3     1  UNL1        0.0519
     25 C         140.6761  140.4430  159.4354 C.ar    1  UNL1        0.0593
     26 N         140.0809  141.7998  159.6697 N.ar    1  UNL1       -0.2310
     27 C         140.9336  142.9099  160.2085 C.ar    1  UNL1        0.1668
     28 C         142.3816  142.6634  160.5130 C.ar    1  UNL1        0.0387
     29 C         142.9768  141.3067  160.2787 C.ar    1  UNL1        0.0024
     30 C         142.1241  140.1965  159.7399 C.ar    1  UNL1        0.0193
     31 N         140.3384  144.2668  160.4429 N.ar    1  UNL1       -0.1708
     32 C         139.9135  144.8262  161.7682 C.ar    1  UNL1        0.2272
     33 N         139.3761  146.2075  161.5375 N.ar    1  UNL1       -0.1044
     34 N         139.4689  146.5017  160.0695 N.ar    1  UNL1       -0.0222
     35 N         140.0637  145.3023  159.3930 N.ar    1  UNL1       -0.0371
@<TRIPOS>BOND
     1    24    25    1
     2    25    26   ar
     3    26    27   ar
     4    27    31    1
     5    31    32   ar
     6    32    33   ar
     7    33    34   ar
     8    34    35   ar
     9    27    28   ar
    10    28    29   ar
    11    29    30   ar
    12    30    21    1
    13    21    22    1
    14    21    20    1
    15    20     1    1
    16     1     2    1
    17     2     3    1
    18     3     4    1
    19     4     5    1
    20     5     6    1
    21     4     7    1
    22     7     8    1
    23     8     9    1
    24     9    12    1
    25    12    13   ar
    26    13    14   ar
    27    14    15   ar
    28    15    16    2
    29    15    17   ar
    30    17    18    1
    31    17    19   ar
    32     9    10   am
    33    10    11    2
    34    30    25   ar
    35     6     1    1
    36    19    12   ar
    37    35    31   ar
    38    10     4    1
    39    22    23    1
@<TRIPOS>MOLECULE
*****
 35 39 0 0 0
SMALL
GASTEIGER

@<TRIPOS>ATOM
      1 N         138.7635  140.8899  160.9696 N.3     1  UNL1       -0.2703
      2 C         139.4238  142.2215  160.7680 C.3     1  UNL1        0.0727
      3 C         139.3711  142.8893  159.4260 C.3     1  UNL1        0.0260
      4 C         138.6580  142.2255  158.2854 C.3     1  UNL1        0.0737
      5 C         137.9977  140.8938  158.4870 C.3     1  UNL1        0.0260
      6 C         138.0504  140.2260  159.8290 C.3     1  UNL1        0.0727
      7 C         137.9855  141.6859  157.0579 C.3     1  UNL1        0.0306
      8 C         138.1804  142.6771  155.9490 C.3     1  UNL1        0.1001
      9 N         138.9734  143.8292  156.4911 N.am    1  UNL1       -0.2425
     10 C         139.2685  143.5501  157.9351 C.2     1  UNL1        0.2296
     11 O         140.0389  144.4394  158.8654 O.2     1  UNL1       -0.2745
     12 C         139.3968  145.0466  155.7240 C.ar    1  UNL1        0.1574
     13 C         140.3708  144.9178  154.5907 C.ar    1  UNL1        0.0414
     14 C         140.7942  146.1353  153.8235 C.ar    1  UNL1        0.0651
     15 C         140.2436  147.4816  154.1898 C.ar    1  UNL1        0.2766
     16 O         140.6670  148.6991  153.4227 O.2     1  UNL1       -0.2655
     17 N         139.2695  147.6105  155.3232 N.ar    1  UNL1       -0.2134
     18 C         138.7189  148.9569  155.6895 C.3     1  UNL1        0.1571
     19 N         138.8461  146.3930  156.0903 N.ar    1  UNL1       -0.1513
     20 C         138.8162  140.2221  162.3117 C.3     1  UNL1        0.1063
     21 C         137.9942  140.7552  163.4475 C.3     1  UNL1        0.1498
     22 O         136.6219  141.3024  163.1880 O.3     1  UNL1       -0.3786
     23 H         136.2304  141.6031  164.0230 H       1  UNL1        0.2108
     24 C         139.4553  143.1511  164.5080 C.3     1  UNL1        0.0519
     25 C         139.2750  141.9390  165.3732 C.ar    1  UNL1        0.0593
     26 N         139.8253  141.9249  166.7685 N.ar    1  UNL1       -0.2310
     27 C         139.6449  140.7129  167.6336 C.ar    1  UNL1        0.1668
     28 C         138.9144  139.5149  167.1033 C.ar    1  UNL1        0.0387
     29 C         138.3641  139.5290  165.7080 C.ar    1  UNL1        0.0024
     30 C         138.5444  140.7410  164.8429 C.ar    1  UNL1        0.0193
     31 N         140.1952  140.6987  169.0290 N.ar    1  UNL1       -0.1708
     32 C         141.4756  140.0504  169.4653 C.ar    1  UNL1        0.2272
     33 N         141.6335  140.2814  170.9390 N.ar    1  UNL1       -0.1044
     34 N         140.4506  141.0725  171.4134 N.ar    1  UNL1       -0.0222
     35 N         139.5617  141.3304  170.2330 N.ar    1  UNL1       -0.0371
@<TRIPOS>BOND
     1    24    25    1
     2    25    26   ar
     3    26    27   ar
     4    27    31    1
     5    31    32   ar
     6    32    33   ar
     7    33    34   ar
     8    34    35   ar
     9    27    28   ar
    10    28    29   ar
    11    29    30   ar
    12    30    21    1
    13    21    22    1
    14    21    20    1
    15    20     1    1
    16     1     2    1
    17     2     3    1
    18     3     4    1
    19     4     5    1
    20     5     6    1
    21     4     7    1
    22     7     8    1
    23     8     9    1
    24     9    12    1
    25    12    13   ar
    26    13    14   ar
    27    14    15   ar
    28    15    16    2
    29    15    17   ar
    30    17    18    1
    31    17    19   ar
    32     9    10   am
    33    10    11    2
    34    30    25   ar
    35     6     1    1
    36    19    12   ar
    37    35    31   ar
    38    10     4    1
    39    22    23    1
@<TRIPOS>MOLECULE
*****
 35 39 0 0 0
SMALL
GASTEIGER

@<TRIPOS>ATOM
      1 N         142.5220  138.0145  162.0816 N.3     1  UNL1       -0.2703
      2 C         143.1710  138.7472  163.2183 C.3     1  UNL1        0.0727
      3 C         142.3703  139.1032  164.4356 C.3     1  UNL1        0.0260
      4 C         140.9206  138.7265  164.5164 C.3     1  UNL1        0.0737
      5 C         140.2716  137.9939  163.3798 C.3     1  UNL1        0.0260
      6 C         141.0723  137.6378  162.1624 C.3     1  UNL1        0.0727
      7 C         139.4696  138.4176  164.7388 C.3     1  UNL1        0.0306
      8 C         139.0825  138.9542  166.0851 C.3     1  UNL1        0.1001
      9 N         140.2942  139.5947  166.6947 N.am    1  UNL1       -0.2425
     10 C         141.4301  139.4540  165.7252 C.2     1  UNL1        0.2296
     11 O         142.8299  139.9531  165.9288 O.2     1  UNL1       -0.2745
     12 C         140.3586  140.2592  168.0378 C.ar    1  UNL1        0.1574
     13 C         139.2247  140.1026  169.0072 C.ar    1  UNL1        0.0414
     14 C         139.2891  140.7671  170.3505 C.ar    1  UNL1        0.0651
     15 C         140.4874  141.5882  170.7243 C.ar    1  UNL1        0.2766
     16 O         140.5519  142.2528  172.0676 O.2     1  UNL1       -0.2655
     17 N         141.6214  141.7448  169.7549 N.ar    1  UNL1       -0.2134
     18 C         142.8198  142.5659  170.1288 C.3     1  UNL1        0.1571
     19 N         141.5569  141.0803  168.4117 N.ar    1  UNL1       -0.1513
     20 C         143.3227  137.6585  160.8642 C.3     1  UNL1        0.1063
     21 C         143.3270  138.5732  159.6754 C.3     1  UNL1        0.1498
     22 O         144.4770  139.5105  159.4543 O.3     1  UNL1       -0.3786
     23 H         144.3230  140.0265  158.6476 H       1  UNL1        0.2108
     24 C         141.1020  140.5683  159.9382 C.3     1  UNL1        0.0519
     25 C         141.0687  139.5481  158.8389 C.ar    1  UNL1        0.0593
     26 N         139.9229  139.5256  157.8712 N.ar    1  UNL1       -0.2310
     27 C         139.8895  138.5054  156.7721 C.ar    1  UNL1        0.1668
     28 C         141.0020  137.5079  156.6407 C.ar    1  UNL1        0.0387
     29 C         142.1478  137.5304  157.6084 C.ar    1  UNL1        0.0024
     30 C         142.1811  138.5506  158.7076 C.ar    1  UNL1        0.0193
     31 N         138.7437  138.4828  155.8042 N.ar    1  UNL1       -0.1708
     32 C         138.1711  139.6699  155.0879 C.ar    1  UNL1        0.2272
     33 N         137.0428  139.1900  154.2238 N.ar    1  UNL1       -0.1044
     34 N         136.9181  137.7062  154.4061 N.ar    1  UNL1       -0.0222
     35 N         137.9693  137.2693  155.3828 N.ar    1  UNL1       -0.0371
@<TRIPOS>BOND
     1    24    25    1
     2    25    26   ar
     3    26    27   ar
     4    27    31    1
     5    31    32   ar
     6    32    33   ar
     7    33    34   ar
     8    34    35   ar
     9    27    28   ar
    10    28    29   ar
    11    29    30   ar
    12    30    21    1
    13    21    22    1
    14    21    20    1
    15    20     1    1
    16     1     2    1
    17     2     3    1
    18     3     4    1
    19     4     5    1
    20     5     6    1
    21     4     7    1
    22     7     8    1
    23     8     9    1
    24     9    12    1
    25    12    13   ar
    26    13    14   ar
    27    14    15   ar
    28    15    16    2
    29    15    17   ar
    30    17    18    1
    31    17    19   ar
    32     9    10   am
    33    10    11    2
    34    30    25   ar
    35     6     1    1
    36    19    12   ar
    37    35    31   ar
    38    10     4    1
    39    22    23    1
@<TRIPOS>MOLECULE
*****
 35 39 0 0 0
SMALL
GASTEIGER

@<TRIPOS>ATOM
      1 N         138.7386  141.0341  160.8483 N.3     1  UNL1       -0.2703
      2 C         139.3522  142.3898  160.6600 C.3     1  UNL1        0.0727
      3 C         139.3469  143.0339  159.3054 C.3     1  UNL1        0.0260
      4 C         138.7278  142.3223  158.1390 C.3     1  UNL1        0.0737
      5 C         138.1142  140.9666  158.3273 C.3     1  UNL1        0.0260
      6 C         138.1196  140.3225  159.6819 C.3     1  UNL1        0.0727
      7 C         138.1489  141.7353  156.8859 C.3     1  UNL1        0.0306
      8 C         138.3637  142.7168  155.7720 C.3     1  UNL1        0.1001
      9 N         139.0754  143.9104  156.3368 N.am    1  UNL1       -0.2425
     10 C         139.3005  143.6666  157.7996 C.2     1  UNL1        0.2296
     11 O         139.9789  144.6026  158.7553 O.2     1  UNL1       -0.2745
     12 C         139.4894  145.1330  155.5728 C.ar    1  UNL1        0.1574
     13 C         138.7749  146.4332  155.7940 C.ar    1  UNL1        0.0414
     14 C         139.1889  147.6559  155.0300 C.ar    1  UNL1        0.0651
     15 C         140.3173  147.5784  154.0448 C.ar    1  UNL1        0.2766
     16 O         140.7313  148.8011  153.2808 O.2     1  UNL1       -0.2655
     17 N         141.0319  146.2781  153.8236 N.ar    1  UNL1       -0.2134
     18 C         142.1604  146.2006  152.8385 C.3     1  UNL1        0.1571
     19 N         140.6178  145.0555  154.5877 N.ar    1  UNL1       -0.1513
     20 C         138.7440  140.3899  162.2029 C.3     1  UNL1        0.1063
     21 C         138.0678  141.0670  163.3581 C.3     1  UNL1        0.1498
     22 O         136.5980  141.3604  163.2995 O.3     1  UNL1       -0.3786
     23 H         136.3225  141.7970  164.1208 H       1  UNL1        0.2108
     24 C         138.1164  139.2590  165.7516 C.3     1  UNL1        0.0519
     25 C         138.8858  140.5466  165.7685 C.ar    1  UNL1        0.0593
     26 N         139.6794  140.9301  166.9822 N.ar    1  UNL1       -0.2310
     27 C         140.4487  142.2177  166.9991 C.ar    1  UNL1        0.1668
     28 C         140.4244  143.1217  165.8023 C.ar    1  UNL1        0.0387
     29 C         139.6308  142.7381  164.5887 C.ar    1  UNL1        0.0024
     30 C         138.8615  141.4506  164.5718 C.ar    1  UNL1        0.0193
     31 N         141.2424  142.6013  168.2128 N.ar    1  UNL1       -0.1708
     32 C         140.7047  143.2718  169.4422 C.ar    1  UNL1        0.2272
     33 N         141.8430  143.4667  170.3994 N.ar    1  UNL1       -0.1044
     34 N         143.0842  142.9166  169.7616 N.ar    1  UNL1       -0.0222
     35 N         142.7130  142.3818  168.4102 N.ar    1  UNL1       -0.0371
@<TRIPOS>BOND
     1    24    25    1
     2    25    26   ar
     3    26    27   ar
     4    27    31    1
     5    31    32   ar
     6    32    33   ar
     7    33    34   ar
     8    34    35   ar
     9    27    28   ar
    10    28    29   ar
    11    29    30   ar
    12    30    21    1
    13    21    22    1
    14    21    20    1
    15    20     1    1
    16     1     2    1
    17     2     3    1
    18     3     4    1
    19     4     5    1
    20     5     6    1
    21     4     7    1
    22     7     8    1
    23     8     9    1
    24     9    12    1
    25    12    13   ar
    26    13    14   ar
    27    14    15   ar
    28    15    16    2
    29    15    17   ar
    30    17    18    1
    31    17    19   ar
    32     9    10   am
    33    10    11    2
    34    30    25   ar
    35     6     1    1
    36    19    12   ar
    37    35    31   ar
    38    10     4    1
    39    22    23    1
@<TRIPOS>MOLECULE
*****
 35 39 0 0 0
SMALL
GASTEIGER

@<TRIPOS>ATOM
      1 N         139.4448  138.5029  162.1225 N.3     1  UNL1       -0.2703
      2 C         138.9402  139.3896  163.2221 C.3     1  UNL1        0.0727
      3 C         139.7440  139.5593  164.4771 C.3     1  UNL1        0.0260
      4 C         141.0523  138.8422  164.6326 C.3     1  UNL1        0.0737
      5 C         141.5568  137.9555  163.5330 C.3     1  UNL1        0.0260
      6 C         140.7531  137.7859  162.2780 C.3     1  UNL1        0.0727
      7 C         142.3715  138.1928  164.9293 C.3     1  UNL1        0.0306
      8 C         142.8125  138.6403  166.2915 C.3     1  UNL1        0.1001
      9 N         141.7658  139.5663  166.8366 N.am    1  UNL1       -0.2425
     10 C         140.6780  139.6911  165.8114 C.2     1  UNL1        0.2296
     11 O         139.4342  140.5192  165.9419 O.2     1  UNL1       -0.2745
     12 C         141.8008  140.2478  168.1723 C.ar    1  UNL1        0.1574
     13 C         140.6866  140.0331  169.1533 C.ar    1  UNL1        0.0414
     14 C         140.7216  140.7146  170.4890 C.ar    1  UNL1        0.0651
     15 C         141.8709  141.6109  170.8439 C.ar    1  UNL1        0.2766
     16 O         141.9060  142.2924  172.1796 O.2     1  UNL1       -0.2655
     17 N         142.9852  141.8256  169.8628 N.ar    1  UNL1       -0.2134
     18 C         144.1345  142.7218  170.2177 C.3     1  UNL1        0.1571
     19 N         142.9501  141.1440  168.5271 N.ar    1  UNL1       -0.1513
     20 C         138.6410  138.3332  160.8674 C.3     1  UNL1        0.1063
     21 C         137.9187  139.5068  160.2749 C.3     1  UNL1        0.1498
     22 O         136.4194  139.5215  160.2330 O.3     1  UNL1       -0.3786
     23 H         136.1155  140.3457  159.8216 H       1  UNL1        0.2108
     24 C         137.9066  142.1396  161.7130 C.3     1  UNL1        0.0519
     25 C         138.6897  141.9821  160.4433 C.ar    1  UNL1        0.0593
     26 N         139.4667  143.1410  159.8928 N.ar    1  UNL1       -0.2310
     27 C         140.2498  142.9835  158.6232 C.ar    1  UNL1        0.1668
     28 C         140.2559  141.6671  157.9042 C.ar    1  UNL1        0.0387
     29 C         139.4789  140.5082  158.4547 C.ar    1  UNL1        0.0024
     30 C         138.6958  140.6657  159.7243 C.ar    1  UNL1        0.0193
     31 N         141.0269  144.1424  158.0726 N.ar    1  UNL1       -0.1708
     32 C         141.1479  144.5145  156.6245 C.ar    1  UNL1        0.2272
     33 N         142.0151  145.7347  156.5303 N.ar    1  UNL1       -0.1044
     34 N         142.4302  146.1168  157.9202 N.ar    1  UNL1       -0.0222
     35 N         141.8194  145.1327  158.8734 N.ar    1  UNL1       -0.0371
@<TRIPOS>BOND
     1    24    25    1
     2    25    26   ar
     3    26    27   ar
     4    27    31    1
     5    31    32   ar
     6    32    33   ar
     7    33    34   ar
     8    34    35   ar
     9    27    28   ar
    10    28    29   ar
    11    29    30   ar
    12    30    21    1
    13    21    22    1
    14    21    20    1
    15    20     1    1
    16     1     2    1
    17     2     3    1
    18     3     4    1
    19     4     5    1
    20     5     6    1
    21     4     7    1
    22     7     8    1
    23     8     9    1
    24     9    12    1
    25    12    13   ar
    26    13    14   ar
    27    14    15   ar
    28    15    16    2
    29    15    17   ar
    30    17    18    1
    31    17    19   ar
    32     9    10   am
    33    10    11    2
    34    30    25   ar
    35     6     1    1
    36    19    12   ar
    37    35    31   ar
    38    10     4    1
    39    22    23    1
