@<TRIPOS>MOLECULE
*****
 26 29 0 0 0
SMALL
GASTEIGER

@<TRIPOS>ATOM
      1 C         141.0017  137.1281  164.1905 C.3     1  UNL1        0.1063
      2 C         141.5643  138.5174  164.1328 C.3     1  UNL1        0.3270
      3 N         142.4432  137.8384  163.1245 N.2     1  UNL1       -0.0293
      4 C         143.5116  138.6169  162.4157 C.2     1  UNL1        0.3199
      5 N         144.3905  137.9379  161.4075 N.pl3   1  UNL1       -0.2463
      6 C         143.7011  140.0745  162.7151 C.ar    1  UNL1        0.1156
      7 C         144.7694  140.8530  162.0063 C.ar    1  UNL1        0.0104
      8 C         144.9589  142.3105  162.3057 C.ar    1  UNL1        0.0004
      9 C         144.0800  142.9895  163.3139 C.ar    1  UNL1        0.0031
     10 C         143.0117  142.2110  164.0227 C.ar    1  UNL1        0.0373
     11 C         142.8222  140.7535  163.7233 C.ar    1  UNL1        0.1501
     12 O         141.7538  139.9749  164.4322 O.3     1  UNL1       -0.4394
     13 H         144.2661  136.9813  161.2110 H       1  UNL1        0.2884
     14 H         145.0917  138.4489  160.9423 H       1  UNL1        0.2884
     15 C         140.4901  138.7139  165.1610 C.ar    1  UNL1        0.0612
     16 C         139.2323  137.8991  165.0968 C.ar    1  UNL1        0.0034
     17 C         138.1581  138.0957  166.1251 C.ar    1  UNL1       -0.0001
     18 C         138.3415  139.1070  167.2176 C.ar    1  UNL1        0.0000
     19 C         139.5992  139.9218  167.2818 C.ar    1  UNL1        0.0014
     20 C         140.6736  139.7253  166.2535 C.ar    1  UNL1        0.0035
     21 C         139.7828  140.9332  168.3743 C.ar    1  UNL1        0.0192
     22 C         140.3693  142.2777  168.0607 C.ar    1  UNL1        0.0031
     23 C         140.5529  143.2890  169.1531 C.ar    1  UNL1        0.0207
     24 C         140.1500  142.9560  170.5590 C.ar    1  UNL1        0.0989
     25 N         139.5635  141.6114  170.8726 N.ar    1  UNL1       -0.2423
     26 C         139.3799  140.6001  169.7802 C.ar    1  UNL1        0.0988
@<TRIPOS>BOND
     1     1     2    1
     2     2    15    1
     3    15    16   ar
     4    16    17   ar
     5    17    18   ar
     6    18    19   ar
     7    19    21    1
     8    21    22   ar
     9    22    23   ar
    10    23    24   ar
    11    24    25   ar
    12    25    26   ar
    13    19    20   ar
    14     2     3    1
    15     3     4    2
    16     4     5    1
    17     4     6    1
    18     6     7   ar
    19     7     8   ar
    20     8     9   ar
    21     9    10   ar
    22    10    11   ar
    23    11    12    1
    24    12     2    1
    25    20    15   ar
    26    11     6   ar
    27    26    21   ar
    28     5    13    1
    29     5    14    1
@<TRIPOS>MOLECULE
*****
 26 29 0 0 0
SMALL
GASTEIGER

@<TRIPOS>ATOM
      1 C         142.4032  138.3289  165.3089 C.3     1  UNL1        0.1063
      2 C         141.5986  138.4302  164.0470 C.3     1  UNL1        0.3270
      3 N         142.9653  138.2136  163.4680 N.2     1  UNL1       -0.0293
      4 C         143.1498  138.1613  161.9803 C.2     1  UNL1        0.3199
      5 N         144.5165  137.9447  161.4012 N.pl3   1  UNL1       -0.2463
      6 C         141.9677  138.3256  161.0716 C.ar    1  UNL1        0.1156
      7 C         142.1522  138.2733  159.5840 C.ar    1  UNL1        0.0104
      8 C         140.9701  138.4377  158.6754 C.ar    1  UNL1        0.0004
      9 C         139.6035  138.6543  159.2545 C.ar    1  UNL1        0.0031
     10 C         139.4189  138.7066  160.7421 C.ar    1  UNL1        0.0373
     11 C         140.6010  138.5422  161.6507 C.ar    1  UNL1        0.1501
     12 O         140.4165  138.5945  163.1385 O.3     1  UNL1       -0.4394
     13 H         145.2924  137.8368  161.9976 H       1  UNL1        0.2884
     14 H         144.6376  137.9104  160.4248 H       1  UNL1        0.2884
     15 C         140.5114  138.6116  165.0643 C.ar    1  UNL1        0.0612
     16 C         139.2658  137.7795  164.9874 C.ar    1  UNL1        0.0034
     17 C         138.1786  137.9609  166.0047 C.ar    1  UNL1       -0.0001
     18 C         138.3369  138.9745  167.0990 C.ar    1  UNL1        0.0000
     19 C         139.5825  139.8067  167.1760 C.ar    1  UNL1        0.0014
     20 C         140.6698  139.6253  166.1587 C.ar    1  UNL1        0.0035
     21 C         139.7409  140.8203  168.2703 C.ar    1  UNL1        0.0192
     22 C         140.4015  142.1362  167.9837 C.ar    1  UNL1        0.0031
     23 C         140.5599  143.1499  169.0779 C.ar    1  UNL1        0.0207
     24 C         140.0578  142.8477  170.4587 C.ar    1  UNL1        0.0989
     25 N         139.3972  141.5319  170.7453 N.ar    1  UNL1       -0.2423
     26 C         139.2387  140.5182  169.6510 C.ar    1  UNL1        0.0988
@<TRIPOS>BOND
     1     1     2    1
     2     2    15    1
     3    15    16   ar
     4    16    17   ar
     5    17    18   ar
     6    18    19   ar
     7    19    21    1
     8    21    22   ar
     9    22    23   ar
    10    23    24   ar
    11    24    25   ar
    12    25    26   ar
    13    19    20   ar
    14     2     3    1
    15     3     4    2
    16     4     5    1
    17     4     6    1
    18     6     7   ar
    19     7     8   ar
    20     8     9   ar
    21     9    10   ar
    22    10    11   ar
    23    11    12    1
    24    12     2    1
    25    20    15   ar
    26    11     6   ar
    27    26    21   ar
    28     5    13    1
    29     5    14    1
@<TRIPOS>MOLECULE
*****
 26 29 0 0 0
SMALL
GASTEIGER

@<TRIPOS>ATOM
      1 C         138.0373  139.1352  166.9863 C.3     1  UNL1        0.1063
      2 C         139.2999  139.9243  167.1683 C.3     1  UNL1        0.3270
      3 N         139.0310  139.5313  168.5907 N.2     1  UNL1       -0.0293
      4 C         139.9658  139.9686  169.6792 C.2     1  UNL1        0.3199
      5 N         139.6969  139.5756  171.1016 N.pl3   1  UNL1       -0.2463
      6 C         141.1696  140.7990  169.3453 C.ar    1  UNL1        0.1156
      7 C         142.1044  141.2364  170.4337 C.ar    1  UNL1        0.0104
      8 C         143.3081  142.0667  170.0998 C.ar    1  UNL1        0.0004
      9 C         143.5771  142.4597  168.6774 C.ar    1  UNL1        0.0031
     10 C         142.6423  142.0223  167.5889 C.ar    1  UNL1        0.0373
     11 C         141.4385  141.1920  167.9228 C.ar    1  UNL1        0.1501
     12 O         140.5037  140.7546  166.8343 O.3     1  UNL1       -0.4394
     13 H         138.9069  139.0306  171.3207 H       1  UNL1        0.2884
     14 H         140.3105  139.8627  171.8160 H       1  UNL1        0.2884
     15 C         139.1304  140.0432  165.6827 C.ar    1  UNL1        0.0612
     16 C         138.7394  138.8420  164.8738 C.ar    1  UNL1        0.0034
     17 C         138.5698  138.9610  163.3882 C.ar    1  UNL1       -0.0001
     18 C         138.7912  140.2812  162.7114 C.ar    1  UNL1        0.0000
     19 C         139.1821  141.4824  163.5202 C.ar    1  UNL1        0.0014
     20 C         139.3517  141.3635  165.0059 C.ar    1  UNL1        0.0035
     21 C         139.4035  142.8026  162.8435 C.ar    1  UNL1        0.0192
     22 C         140.6552  143.0387  162.0512 C.ar    1  UNL1        0.0031
     23 C         140.8766  144.3589  161.3745 C.ar    1  UNL1        0.0207
     24 C         139.8464  145.4430  161.4899 C.ar    1  UNL1        0.0989
     25 N         138.5947  145.2070  162.2822 N.ar    1  UNL1       -0.2423
     26 C         138.3733  143.8868  162.9589 C.ar    1  UNL1        0.0988
@<TRIPOS>BOND
     1     1     2    1
     2     2    15    1
     3    15    16   ar
     4    16    17   ar
     5    17    18   ar
     6    18    19   ar
     7    19    21    1
     8    21    22   ar
     9    22    23   ar
    10    23    24   ar
    11    24    25   ar
    12    25    26   ar
    13    19    20   ar
    14     2     3    1
    15     3     4    2
    16     4     5    1
    17     4     6    1
    18     6     7   ar
    19     7     8   ar
    20     8     9   ar
    21     9    10   ar
    22    10    11   ar
    23    11    12    1
    24    12     2    1
    25    20    15   ar
    26    11     6   ar
    27    26    21   ar
    28     5    13    1
    29     5    14    1
@<TRIPOS>MOLECULE
*****
 26 29 0 0 0
SMALL
GASTEIGER

@<TRIPOS>ATOM
      1 C         137.8850  138.6606  166.7209 C.3     1  UNL1        0.1063
      2 C         139.1391  139.4773  166.8225 C.3     1  UNL1        0.3270
      3 N         138.7291  139.4488  168.2652 N.2     1  UNL1       -0.0293
      4 C         139.5643  140.1485  169.2961 C.2     1  UNL1        0.3199
      5 N         139.1544  140.1200  170.7387 N.pl3   1  UNL1       -0.2463
      6 C         140.8096  140.8765  168.8845 C.ar    1  UNL1        0.1156
      7 C         141.6448  141.5762  169.9154 C.ar    1  UNL1        0.0104
      8 C         142.8899  142.3042  169.5038 C.ar    1  UNL1        0.0004
      9 C         143.2999  142.3326  168.0612 C.ar    1  UNL1        0.0031
     10 C         142.4647  141.6330  167.0302 C.ar    1  UNL1        0.0373
     11 C         141.2195  140.9050  167.4419 C.ar    1  UNL1        0.1501
     12 O         140.3842  140.2053  166.4109 O.3     1  UNL1       -0.4394
     13 H         138.3371  139.6422  171.0089 H       1  UNL1        0.2884
     14 H         139.7026  140.5792  171.4154 H       1  UNL1        0.2884
     15 C         139.1135  139.2221  165.3447 C.ar    1  UNL1        0.0612
     16 C         138.9529  137.8232  164.8277 C.ar    1  UNL1        0.0034
     17 C         138.9274  137.5680  163.3499 C.ar    1  UNL1       -0.0001
     18 C         139.0624  138.7117  162.3888 C.ar    1  UNL1        0.0000
     19 C         139.2230  140.1106  162.9056 C.ar    1  UNL1        0.0014
     20 C         139.2486  140.3659  164.3836 C.ar    1  UNL1        0.0035
     21 C         139.3580  141.2544  161.9447 C.ar    1  UNL1        0.0192
     22 C         140.7091  141.6320  161.4133 C.ar    1  UNL1        0.0031
     23 C         140.8441  142.7757  160.4524 C.ar    1  UNL1        0.0207
     24 C         139.6283  143.5419  160.0227 C.ar    1  UNL1        0.0989
     25 N         138.2773  143.1644  160.5540 N.ar    1  UNL1       -0.2423
     26 C         138.1422  142.0206  161.5150 C.ar    1  UNL1        0.0988
@<TRIPOS>BOND
     1     1     2    1
     2     2    15    1
     3    15    16   ar
     4    16    17   ar
     5    17    18   ar
     6    18    19   ar
     7    19    21    1
     8    21    22   ar
     9    22    23   ar
    10    23    24   ar
    11    24    25   ar
    12    25    26   ar
    13    19    20   ar
    14     2     3    1
    15     3     4    2
    16     4     5    1
    17     4     6    1
    18     6     7   ar
    19     7     8   ar
    20     8     9   ar
    21     9    10   ar
    22    10    11   ar
    23    11    12    1
    24    12     2    1
    25    20    15   ar
    26    11     6   ar
    27    26    21   ar
    28     5    13    1
    29     5    14    1
@<TRIPOS>MOLECULE
*****
 26 29 0 0 0
SMALL
GASTEIGER

@<TRIPOS>ATOM
      1 C         137.8084  141.8641  163.9972 C.3     1  UNL1        0.1063
      2 C         139.2385  142.2494  164.2350 C.3     1  UNL1        0.3270
      3 N         138.9163  143.1460  163.0764 N.2     1  UNL1       -0.0293
      4 C         139.9636  144.0700  162.5292 C.2     1  UNL1        0.3199
      5 N         139.6414  144.9665  161.3706 N.pl3   1  UNL1       -0.2463
      6 C         141.3331  144.0974  163.1406 C.ar    1  UNL1        0.1156
      7 C         142.3804  145.0214  162.5934 C.ar    1  UNL1        0.0104
      8 C         143.7498  145.0488  163.2048 C.ar    1  UNL1        0.0004
      9 C         144.0720  144.1522  164.3634 C.ar    1  UNL1        0.0031
     10 C         143.0247  143.2282  164.9106 C.ar    1  UNL1        0.0373
     11 C         141.6553  143.2008  164.2992 C.ar    1  UNL1        0.1501
     12 O         140.6079  142.2768  164.8464 O.3     1  UNL1       -0.4394
     13 H         138.7426  144.9485  160.9693 H       1  UNL1        0.2884
     14 H         140.3288  145.5730  161.0115 H       1  UNL1        0.2884
     15 C         139.0640  141.2190  165.3110 C.ar    1  UNL1        0.0612
     16 C         138.1158  140.0749  165.1072 C.ar    1  UNL1        0.0034
     17 C         137.9413  139.0445  166.1832 C.ar    1  UNL1       -0.0001
     18 C         138.7151  139.1583  167.4631 C.ar    1  UNL1        0.0000
     19 C         139.6634  140.3024  167.6670 C.ar    1  UNL1        0.0014
     20 C         139.8379  141.3328  166.5910 C.ar    1  UNL1        0.0035
     21 C         140.4373  140.4163  168.9469 C.ar    1  UNL1        0.0192
     22 C         141.8263  139.8570  169.0357 C.ar    1  UNL1        0.0031
     23 C         142.6002  139.9709  170.3156 C.ar    1  UNL1        0.0207
     24 C         141.9852  140.6439  171.5066 C.ar    1  UNL1        0.0989
     25 N         140.5961  141.2032  171.4179 N.ar    1  UNL1       -0.2423
     26 C         139.8222  141.0893  170.1380 C.ar    1  UNL1        0.0988
@<TRIPOS>BOND
     1     1     2    1
     2     2    15    1
     3    15    16   ar
     4    16    17   ar
     5    17    18   ar
     6    18    19   ar
     7    19    21    1
     8    21    22   ar
     9    22    23   ar
    10    23    24   ar
    11    24    25   ar
    12    25    26   ar
    13    19    20   ar
    14     2     3    1
    15     3     4    2
    16     4     5    1
    17     4     6    1
    18     6     7   ar
    19     7     8   ar
    20     8     9   ar
    21     9    10   ar
    22    10    11   ar
    23    11    12    1
    24    12     2    1
    25    20    15   ar
    26    11     6   ar
    27    26    21   ar
    28     5    13    1
    29     5    14    1
@<TRIPOS>MOLECULE
*****
 26 29 0 0 0
SMALL
GASTEIGER

@<TRIPOS>ATOM
      1 C         140.0640  144.8236  164.7168 C.3     1  UNL1        0.1063
      2 C         140.8196  144.4123  163.4880 C.3     1  UNL1        0.3270
      3 N         139.9131  145.4529  162.9003 N.2     1  UNL1       -0.0293
      4 C         139.9858  145.7704  161.4362 C.2     1  UNL1        0.3199
      5 N         139.0793  146.8110  160.8485 N.pl3   1  UNL1       -0.2463
      6 C         140.9651  145.0473  160.5596 C.ar    1  UNL1        0.1156
      7 C         141.0378  145.3649  159.0955 C.ar    1  UNL1        0.0104
      8 C         142.0170  144.6418  158.2190 C.ar    1  UNL1        0.0004
      9 C         142.9235  143.6012  158.8067 C.ar    1  UNL1        0.0031
     10 C         142.8508  143.2837  160.2708 C.ar    1  UNL1        0.0373
     11 C         141.8716  144.0067  161.1473 C.ar    1  UNL1        0.1501
     12 O         141.7988  143.6892  162.6116 O.3     1  UNL1       -0.4394
     13 H         138.4366  147.2856  161.4238 H       1  UNL1        0.2884
     14 H         139.1271  147.0194  159.8875 H       1  UNL1        0.2884
     15 C         141.4637  143.5145  164.5025 C.ar    1  UNL1        0.0612
     16 C         142.9195  143.1729  164.3849 C.ar    1  UNL1        0.0034
     17 C         143.5636  142.2751  165.3993 C.ar    1  UNL1       -0.0001
     18 C         142.7519  141.7189  166.5314 C.ar    1  UNL1        0.0000
     19 C         141.2960  142.0604  166.6491 C.ar    1  UNL1        0.0014
     20 C         140.6519  142.9582  165.6346 C.ar    1  UNL1        0.0035
     21 C         140.4842  141.5042  167.7812 C.ar    1  UNL1        0.0192
     22 C         140.4094  142.2434  169.0843 C.ar    1  UNL1        0.0031
     23 C         139.5976  141.6872  170.2164 C.ar    1  UNL1        0.0207
     24 C         138.8607  140.3920  170.0454 C.ar    1  UNL1        0.0989
     25 N         138.9355  139.6528  168.7423 N.ar    1  UNL1       -0.2423
     26 C         139.7473  140.2090  167.6102 C.ar    1  UNL1        0.0988
@<TRIPOS>BOND
     1     1     2    1
     2     2    15    1
     3    15    16   ar
     4    16    17   ar
     5    17    18   ar
     6    18    19   ar
     7    19    21    1
     8    21    22   ar
     9    22    23   ar
    10    23    24   ar
    11    24    25   ar
    12    25    26   ar
    13    19    20   ar
    14     2     3    1
    15     3     4    2
    16     4     5    1
    17     4     6    1
    18     6     7   ar
    19     7     8   ar
    20     8     9   ar
    21     9    10   ar
    22    10    11   ar
    23    11    12    1
    24    12     2    1
    25    20    15   ar
    26    11     6   ar
    27    26    21   ar
    28     5    13    1
    29     5    14    1
@<TRIPOS>MOLECULE
*****
 26 29 0 0 0
SMALL
GASTEIGER

@<TRIPOS>ATOM
      1 C         143.6797  138.1147  166.4395 C.3     1  UNL1        0.1063
      2 C         142.8935  139.3399  166.8009 C.3     1  UNL1        0.3270
      3 N         143.1819  138.8019  168.1710 N.2     1  UNL1       -0.0293
      4 C         142.6788  139.5282  169.3832 C.2     1  UNL1        0.3199
      5 N         142.9672  138.9901  170.7534 N.pl3   1  UNL1       -0.2463
      6 C         141.8873  140.7926  169.2252 C.ar    1  UNL1        0.1156
      7 C         141.3842  141.5189  170.4374 C.ar    1  UNL1        0.0104
      8 C         140.5927  142.7832  170.2793 C.ar    1  UNL1        0.0004
      9 C         140.3043  143.3212  168.9092 C.ar    1  UNL1        0.0031
     10 C         140.8074  142.5949  167.6970 C.ar    1  UNL1        0.0373
     11 C         141.5989  141.3306  167.8551 C.ar    1  UNL1        0.1501
     12 O         142.1021  140.6043  166.6429 O.3     1  UNL1       -0.4394
     13 H         143.4866  138.1603  170.8571 H       1  UNL1        0.2884
     14 H         142.6369  139.4668  171.5489 H       1  UNL1        0.2884
     15 C         142.8782  139.4525  165.3052 C.ar    1  UNL1        0.0612
     16 C         144.1692  139.5336  164.5459 C.ar    1  UNL1        0.0034
     17 C         144.1539  139.6461  163.0502 C.ar    1  UNL1       -0.0001
     18 C         142.8474  139.6775  162.3138 C.ar    1  UNL1        0.0000
     19 C         141.5564  139.5964  163.0731 C.ar    1  UNL1        0.0014
     20 C         141.5717  139.4839  164.5688 C.ar    1  UNL1        0.0035
     21 C         140.2499  139.6279  162.3367 C.ar    1  UNL1        0.0192
     22 C         139.1255  140.4834  162.8406 C.ar    1  UNL1        0.0031
     23 C         137.8191  140.5148  162.1043 C.ar    1  UNL1        0.0207
     24 C         137.6370  139.6908  160.8642 C.ar    1  UNL1        0.0989
     25 N         138.7614  138.8353  160.3604 N.ar    1  UNL1       -0.2423
     26 C         140.0678  138.8039  161.0967 C.ar    1  UNL1        0.0988
@<TRIPOS>BOND
     1     1     2    1
     2     2    15    1
     3    15    16   ar
     4    16    17   ar
     5    17    18   ar
     6    18    19   ar
     7    19    21    1
     8    21    22   ar
     9    22    23   ar
    10    23    24   ar
    11    24    25   ar
    12    25    26   ar
    13    19    20   ar
    14     2     3    1
    15     3     4    2
    16     4     5    1
    17     4     6    1
    18     6     7   ar
    19     7     8   ar
    20     8     9   ar
    21     9    10   ar
    22    10    11   ar
    23    11    12    1
    24    12     2    1
    25    20    15   ar
    26    11     6   ar
    27    26    21   ar
    28     5    13    1
    29     5    14    1
@<TRIPOS>MOLECULE
*****
 26 29 0 0 0
SMALL
GASTEIGER

@<TRIPOS>ATOM
      1 C         140.7010  137.2516  164.6453 C.3     1  UNL1        0.1063
      2 C         140.4591  138.6410  164.1346 C.3     1  UNL1        0.3270
      3 N         139.7880  137.8459  163.0542 N.2     1  UNL1       -0.0293
      4 C         139.1373  138.5487  161.8999 C.2     1  UNL1        0.3199
      5 N         138.4662  137.7535  160.8194 N.pl3   1  UNL1       -0.2463
      6 C         139.1576  140.0468  161.8259 C.ar    1  UNL1        0.1156
      7 C         138.5069  140.7496  160.6716 C.ar    1  UNL1        0.0104
      8 C         138.5272  142.2476  160.5977 C.ar    1  UNL1        0.0004
      9 C         139.1983  143.0428  161.6782 C.ar    1  UNL1        0.0031
     10 C         139.8490  142.3400  162.8325 C.ar    1  UNL1        0.0373
     11 C         139.8287  140.8420  162.9064 C.ar    1  UNL1        0.1501
     12 O         140.4794  140.1391  164.0608 O.3     1  UNL1       -0.4394
     13 H         138.4529  136.7703  160.8679 H       1  UNL1        0.2884
     14 H         138.0391  138.2149  160.0618 H       1  UNL1        0.2884
     15 C         141.2142  138.9537  165.3924 C.ar    1  UNL1        0.0612
     16 C         142.5515  138.3216  165.6412 C.ar    1  UNL1        0.0034
     17 C         143.3066  138.6342  166.8989 C.ar    1  UNL1       -0.0001
     18 C         142.7243  139.5790  167.9081 C.ar    1  UNL1        0.0000
     19 C         141.3869  140.2111  167.6595 C.ar    1  UNL1        0.0014
     20 C         140.6318  139.8985  166.4016 C.ar    1  UNL1        0.0035
     21 C         140.8046  141.1558  168.6686 C.ar    1  UNL1        0.0192
     22 C         141.2726  142.5800  168.7200 C.ar    1  UNL1        0.0031
     23 C         140.6903  143.5248  169.7291 C.ar    1  UNL1        0.0207
     24 C         139.6400  143.0454  170.6867 C.ar    1  UNL1        0.0989
     25 N         139.1719  141.6212  170.6353 N.ar    1  UNL1       -0.2423
     26 C         139.7543  140.6765  169.6262 C.ar    1  UNL1        0.0988
@<TRIPOS>BOND
     1     1     2    1
     2     2    15    1
     3    15    16   ar
     4    16    17   ar
     5    17    18   ar
     6    18    19   ar
     7    19    21    1
     8    21    22   ar
     9    22    23   ar
    10    23    24   ar
    11    24    25   ar
    12    25    26   ar
    13    19    20   ar
    14     2     3    1
    15     3     4    2
    16     4     5    1
    17     4     6    1
    18     6     7   ar
    19     7     8   ar
    20     8     9   ar
    21     9    10   ar
    22    10    11   ar
    23    11    12    1
    24    12     2    1
    25    20    15   ar
    26    11     6   ar
    27    26    21   ar
    28     5    13    1
    29     5    14    1
@<TRIPOS>MOLECULE
*****
 26 29 0 0 0
SMALL
GASTEIGER

@<TRIPOS>ATOM
      1 C         143.7293  138.4128  166.1915 C.3     1  UNL1        0.1063
      2 C         142.9541  139.5559  166.7767 C.3     1  UNL1        0.3270
      3 N         143.1497  138.7178  168.0052 N.2     1  UNL1       -0.0293
      4 C         142.5958  139.1760  169.3217 C.2     1  UNL1        0.3199
      5 N         142.7914  138.3379  170.5502 N.pl3   1  UNL1       -0.2463
      6 C         141.8461  140.4723  169.4097 C.ar    1  UNL1        0.1156
      7 C         141.2921  140.9304  170.7261 C.ar    1  UNL1        0.0104
      8 C         140.5425  142.2266  170.8141 C.ar    1  UNL1        0.0004
      9 C         140.3468  143.0647  169.5855 C.ar    1  UNL1        0.0031
     10 C         140.9008  142.6066  168.2690 C.ar    1  UNL1        0.0373
     11 C         141.6504  141.3103  168.1811 C.ar    1  UNL1        0.1501
     12 O         142.2044  140.8521  166.8646 O.3     1  UNL1       -0.4394
     13 H         143.2835  137.4871  170.4925 H       1  UNL1        0.2884
     14 H         142.4278  138.6386  171.4143 H       1  UNL1        0.2884
     15 C         143.0276  139.9970  165.3449 C.ar    1  UNL1        0.0612
     16 C         143.7679  139.1644  164.3406 C.ar    1  UNL1        0.0034
     17 C         143.8415  139.6054  162.9089 C.ar    1  UNL1       -0.0001
     18 C         143.1746  140.8792  162.4813 C.ar    1  UNL1        0.0000
     19 C         142.4343  141.7119  163.4855 C.ar    1  UNL1        0.0014
     20 C         142.3607  141.2708  164.9173 C.ar    1  UNL1        0.0035
     21 C         141.7674  142.9857  163.0580 C.ar    1  UNL1        0.0192
     22 C         140.7966  143.6684  163.9754 C.ar    1  UNL1        0.0031
     23 C         140.1297  144.9422  163.5479 C.ar    1  UNL1        0.0207
     24 C         140.4336  145.5332  162.2032 C.ar    1  UNL1        0.0989
     25 N         141.4044  144.8505  161.2858 N.ar    1  UNL1       -0.2423
     26 C         142.0712  143.5767  161.7133 C.ar    1  UNL1        0.0988
@<TRIPOS>BOND
     1     1     2    1
     2     2    15    1
     3    15    16   ar
     4    16    17   ar
     5    17    18   ar
     6    18    19   ar
     7    19    21    1
     8    21    22   ar
     9    22    23   ar
    10    23    24   ar
    11    24    25   ar
    12    25    26   ar
    13    19    20   ar
    14     2     3    1
    15     3     4    2
    16     4     5    1
    17     4     6    1
    18     6     7   ar
    19     7     8   ar
    20     8     9   ar
    21     9    10   ar
    22    10    11   ar
    23    11    12    1
    24    12     2    1
    25    20    15   ar
    26    11     6   ar
    27    26    21   ar
    28     5    13    1
    29     5    14    1
