@<TRIPOS>MOLECULE
*****
 38 42 0 0 0
SMALL
GASTEIGER

@<TRIPOS>ATOM
      1 C         141.3021  138.8659  163.1206 C.3     1  UNL1        0.0890
      2 C         140.8951  138.9740  161.6810 C.3     1  UNL1        0.0386
      3 C         141.9039  138.7368  160.5965 C.3     1  UNL1        0.0594
      4 C         143.1885  138.4303  159.8854 C.3     1  UNL1        0.0174
      5 C         144.2410  138.1684  160.9217 C.3     1  UNL1        0.0174
      6 C         143.6067  138.3131  162.2733 C.3     1  UNL1        0.0594
      7 C         142.7179  138.5205  163.4758 C.3     1  UNL1        0.0386
      8 N         142.1624  138.6644  162.0723 N.3     1  UNL1       -0.2750
      9 C         140.5777  140.3839  170.0346 C.2     1  UNL1        0.2259
     10 O         139.3757  140.5753  170.9112 O.2     1  UNL1       -0.2749
     11 N         140.5846  140.0621  168.5695 N.am    1  UNL1       -0.2734
     12 C         141.8870  139.9037  167.8426 C.3     1  UNL1        0.1000
     13 C         141.8939  139.5819  166.3775 C.3     1  UNL1        0.0666
     14 C         140.5984  139.4185  165.6394 C.ar    1  UNL1        0.0549
     15 C         139.2960  139.5769  166.3664 C.ar    1  UNL1        0.0919
     16 N         138.1858  139.3594  165.3813 N.ar    1  UNL1       -0.2339
     17 C         138.8022  139.0665  164.0455 C.ar    1  UNL1        0.1201
     18 C         138.0582  138.7864  162.7735 C.3     1  UNL1        0.0718
     19 N         140.2933  139.1031  164.2051 N.ar    1  UNL1       -0.3202
     20 C         139.2891  139.8987  167.8314 C.3     1  UNL1        0.1405
     21 C         141.8732  140.5474  170.7727 C.3     1  UNL1        0.0853
     22 C         143.5313  142.3523  169.9107 C.3     1  UNL1        0.0005
     23 C         142.4971  141.9054  170.9011 C.3     1  UNL1        0.0096
     24 C         141.1536  138.9016  163.1567 C.3     1  UNL1        0.0741
     25 C         141.1944  140.1712  163.9545 C.3     1  UNL1        0.0414
     26 C         141.2789  141.4948  163.2538 C.3     1  UNL1        0.0955
     27 C         140.1043  142.4276  163.2686 C.ar    1  UNL1       -0.0022
     28 C         139.0725  142.3516  162.1825 C.ar    1  UNL1       -0.0025
     29 C         137.8979  143.2843  162.1972 C.ar    1  UNL1        0.0020
     30 C         137.7551  144.2932  163.2981 C.ar    1  UNL1        0.0296
     31 C         138.7869  144.3692  164.3842 C.ar    1  UNL1        0.1399
     32 F         138.8004  145.3101  165.5522 F       1  UNL1       -0.2042
     33 C         139.9615  143.4364  164.3695 C.ar    1  UNL1        0.0270
     34 N         142.5380  141.8856  162.5383 N.am    1  UNL1       -0.3021
     35 C         143.8361  141.9529  163.2870 C.2     1  UNL1        0.2232
     36 C         145.0952  142.3437  162.5717 C.3     1  UNL1        0.0946
     37 O         144.2311  141.7029  164.7124 O.2     1  UNL1       -0.2751
     38 H         142.5125  142.0980  161.5774 H       1  UNL1        0.1497
@<TRIPOS>BOND
     1    22    23    1
     2    23    21    1
     3    21     9    1
     4     9    10    2
     5     9    11   am
     6    11    12    1
     7    12    13    1
     8    13    14    1
     9    14    15   ar
    10    15    16   ar
    11    16    17   ar
    12    17    18    1
    13    17    19   ar
    14     1    19    1
    15     1     2    1
    16     3     2    1
    17     3     4    1
    18     4     5    1
    19     6     5    1
    20     6     7    1
    21     6     8    1
    22     8    24    1
    23    24    25    1
    24    26    25    1
    25    26    34    1
    26    34    35   am
    27    35    36    1
    28    35    37    2
    29    26    27    1
    30    27    28   ar
    31    28    29   ar
    32    29    30   ar
    33    30    31   ar
    34    31    32    1
    35    31    33   ar
    36    15    20    1
    37    20    11    1
    38    19    14   ar
    39     7     1    1
    40    33    27   ar
    41     8     3    1
    42    34    38    1
@<TRIPOS>MOLECULE
*****
 38 42 0 0 0
SMALL
GASTEIGER

@<TRIPOS>ATOM
      1 C         142.0739  141.7792  162.8975 C.3     1  UNL1        0.0890
      2 C         142.3601  143.1993  163.2865 C.3     1  UNL1        0.0386
      3 C         141.9454  144.3226  162.3831 C.3     1  UNL1        0.0594
      4 C         141.3749  145.0846  161.2239 C.3     1  UNL1        0.0174
      5 C         140.8049  144.0933  160.2529 C.3     1  UNL1        0.0174
      6 C         141.0233  142.7187  160.8122 C.3     1  UNL1        0.0594
      7 C         141.3730  141.4824  161.6050 C.3     1  UNL1        0.0386
      8 N         141.7281  142.8604  162.1286 N.3     1  UNL1       -0.2750
      9 C         142.7405  139.8654  169.7184 C.2     1  UNL1        0.2259
     10 O         143.2096  138.6019  170.3769 O.2     1  UNL1       -0.2749
     11 N         142.6500  140.1361  168.2458 N.am    1  UNL1       -0.2734
     12 C         142.1551  141.4649  167.7566 C.3     1  UNL1        0.1000
     13 C         142.0646  141.7356  166.2840 C.3     1  UNL1        0.0666
     14 C         142.4691  140.6776  165.3007 C.ar    1  UNL1        0.0549
     15 C         142.9640  139.3489  165.7899 C.ar    1  UNL1        0.0919
     16 N         143.2894  138.5059  164.5926 N.ar    1  UNL1       -0.2339
     17 C         142.9956  139.3137  163.3633 C.ar    1  UNL1        0.1201
     18 C         143.1769  138.8591  161.9453 C.3     1  UNL1        0.0718
     19 N         142.4886  140.6559  163.8009 N.ar    1  UNL1       -0.3202
     20 C         143.0545  139.0781  167.2625 C.3     1  UNL1        0.1405
     21 C         142.3360  140.9234  170.7017 C.3     1  UNL1        0.0853
     22 C         139.8544  140.1837  170.4903 C.3     1  UNL1        0.0005
     23 C         140.9071  141.0276  171.1459 C.3     1  UNL1        0.0096
     24 C         142.1428  141.7371  163.0321 C.3     1  UNL1        0.0741
     25 C         141.2061  140.5931  163.2850 C.3     1  UNL1        0.0414
     26 C         139.9439  140.8154  164.0644 C.3     1  UNL1        0.0955
     27 C         139.3037  139.6736  164.7967 C.ar    1  UNL1       -0.0022
     28 C         139.2450  138.3151  164.1635 C.ar    1  UNL1       -0.0025
     29 C         138.6049  137.1732  164.8957 C.ar    1  UNL1        0.0020
     30 C         138.0232  137.3898  166.2614 C.ar    1  UNL1        0.0296
     31 C         138.0819  138.7483  166.8946 C.ar    1  UNL1        0.1399
     32 F         137.5539  139.1394  168.2430 F       1  UNL1       -0.2042
     33 C         138.7221  139.8903  166.1623 C.ar    1  UNL1        0.0270
     34 N         139.3220  142.1796  164.1115 N.am    1  UNL1       -0.3021
     35 C         138.1844  142.5173  163.1939 C.2     1  UNL1        0.2232
     36 C         137.5625  143.8814  163.2409 C.3     1  UNL1        0.0946
     37 O         137.4383  141.7591  162.1362 O.2     1  UNL1       -0.2751
     38 H         139.6604  142.8533  164.7446 H       1  UNL1        0.1497
@<TRIPOS>BOND
     1    22    23    1
     2    23    21    1
     3    21     9    1
     4     9    10    2
     5     9    11   am
     6    11    12    1
     7    12    13    1
     8    13    14    1
     9    14    15   ar
    10    15    16   ar
    11    16    17   ar
    12    17    18    1
    13    17    19   ar
    14     1    19    1
    15     1     2    1
    16     3     2    1
    17     3     4    1
    18     4     5    1
    19     6     5    1
    20     6     7    1
    21     6     8    1
    22     8    24    1
    23    24    25    1
    24    26    25    1
    25    26    34    1
    26    34    35   am
    27    35    36    1
    28    35    37    2
    29    26    27    1
    30    27    28   ar
    31    28    29   ar
    32    29    30   ar
    33    30    31   ar
    34    31    32    1
    35    31    33   ar
    36    15    20    1
    37    20    11    1
    38    19    14   ar
    39     7     1    1
    40    33    27   ar
    41     8     3    1
    42    34    38    1
@<TRIPOS>MOLECULE
*****
 38 42 0 0 0
SMALL
GASTEIGER

@<TRIPOS>ATOM
      1 C         143.4178  140.4641  162.8318 C.3     1  UNL1        0.0890
      2 C         143.6809  139.0050  163.0595 C.3     1  UNL1        0.0386
      3 C         143.5611  138.0349  161.9218 C.3     1  UNL1        0.0594
      4 C         143.3319  137.4597  160.5556 C.3     1  UNL1        0.0174
      5 C         142.9589  138.5844  159.6357 C.3     1  UNL1        0.0174
      6 C         142.9576  139.8546  160.4336 C.3     1  UNL1        0.0594
      7 C         143.0349  140.9530  161.4664 C.3     1  UNL1        0.0386
      8 N         143.3298  139.5150  161.8463 N.3     1  UNL1       -0.2750
      9 C         142.3020  141.2674  169.8133 C.2     1  UNL1        0.2259
     10 O         142.5261  142.4162  170.7514 O.2     1  UNL1       -0.2749
     11 N         142.5867  141.2354  168.3409 N.am    1  UNL1       -0.2734
     12 C         142.3002  139.9946  167.5484 C.3     1  UNL1        0.1000
     13 C         142.5849  139.9626  166.0760 C.3     1  UNL1        0.0666
     14 C         143.1561  141.1715  165.3962 C.ar    1  UNL1        0.0549
     15 C         143.4426  142.4123  166.1887 C.ar    1  UNL1        0.0919
     16 N         144.0012  143.4421  165.2518 N.ar    1  UNL1       -0.2339
     17 C         144.0599  142.8376  163.8803 C.ar    1  UNL1        0.1201
     18 C         144.5541  143.5172  162.6376 C.3     1  UNL1        0.0718
     19 N         143.5376  141.4343  163.9695 N.ar    1  UNL1       -0.3202
     20 C         143.1579  142.4443  167.6611 C.3     1  UNL1        0.1405
     21 C         141.7308  140.0585  170.4932 C.3     1  UNL1        0.0853
     22 C         139.3048  140.6937  169.8140 C.3     1  UNL1        0.0005
     23 C         140.2504  139.9487  170.7090 C.3     1  UNL1        0.0096
     24 C         143.4496  140.4852  162.9840 C.3     1  UNL1        0.0741
     25 C         142.3946  141.5310  163.1921 C.3     1  UNL1        0.0414
     26 C         140.9491  141.1358  163.2568 C.3     1  UNL1        0.0955
     27 C         139.8849  142.1913  163.3165 C.ar    1  UNL1       -0.0022
     28 C         138.8480  142.2728  162.2357 C.ar    1  UNL1       -0.0025
     29 C         137.7839  143.3282  162.2952 C.ar    1  UNL1        0.0020
     30 C         137.7565  144.3022  163.4358 C.ar    1  UNL1        0.0296
     31 C         138.7934  144.2206  164.5166 C.ar    1  UNL1        0.1399
     32 F         138.9142  145.1072  165.7205 F       1  UNL1       -0.2042
     33 C         139.8576  143.1652  164.4570 C.ar    1  UNL1        0.0270
     34 N         140.5678  139.6851  163.2619 N.am    1  UNL1       -0.3021
     35 C         139.6618  139.1515  164.3317 C.2     1  UNL1        0.2232
     36 C         139.2804  137.7009  164.3369 C.3     1  UNL1        0.0946
     37 O         138.9730  139.7642  165.5151 O.2     1  UNL1       -0.2751
     38 H         140.9121  139.0832  162.5630 H       1  UNL1        0.1497
@<TRIPOS>BOND
     1    22    23    1
     2    23    21    1
     3    21     9    1
     4     9    10    2
     5     9    11   am
     6    11    12    1
     7    12    13    1
     8    13    14    1
     9    14    15   ar
    10    15    16   ar
    11    16    17   ar
    12    17    18    1
    13    17    19   ar
    14     1    19    1
    15     1     2    1
    16     3     2    1
    17     3     4    1
    18     4     5    1
    19     6     5    1
    20     6     7    1
    21     6     8    1
    22     8    24    1
    23    24    25    1
    24    26    25    1
    25    26    34    1
    26    34    35   am
    27    35    36    1
    28    35    37    2
    29    26    27    1
    30    27    28   ar
    31    28    29   ar
    32    29    30   ar
    33    30    31   ar
    34    31    32    1
    35    31    33   ar
    36    15    20    1
    37    20    11    1
    38    19    14   ar
    39     7     1    1
    40    33    27   ar
    41     8     3    1
    42    34    38    1
@<TRIPOS>MOLECULE
*****
 38 42 0 0 0
SMALL
GASTEIGER

@<TRIPOS>ATOM
      1 C         140.5275  139.1775  163.0077 C.3     1  UNL1        0.0890
      2 C         140.8748  139.3772  161.5622 C.3     1  UNL1        0.0386
      3 C         139.7847  139.5106  160.5405 C.3     1  UNL1        0.0594
      4 C         138.4296  139.5901  159.9023 C.3     1  UNL1        0.0174
      5 C         137.3992  139.4365  160.9815 C.3     1  UNL1        0.0174
      6 C         138.1176  139.2622  162.2867 C.3     1  UNL1        0.0594
      7 C         139.0902  139.1112  163.4314 C.3     1  UNL1        0.0386
      8 N         139.5918  139.3080  162.0141 N.3     1  UNL1       -0.2750
      9 C         141.9930  139.8507  169.9382 C.2     1  UNL1        0.2259
     10 O         143.2457  139.6396  170.7359 O.2     1  UNL1       -0.2749
     11 N         141.8234  139.6689  168.4589 N.am    1  UNL1       -0.2734
     12 C         140.4909  139.9255  167.8197 C.3     1  UNL1        0.1000
     13 C         140.3212  139.7437  166.3404 C.3     1  UNL1        0.0666
     14 C         141.4840  139.3053  165.5004 C.ar    1  UNL1        0.0549
     15 C         142.8165  139.0487  166.1397 C.ar    1  UNL1        0.0919
     16 N         143.7736  138.6288  165.0637 N.ar    1  UNL1       -0.2339
     17 C         143.0327  138.6260  163.7595 C.ar    1  UNL1        0.1201
     18 C         143.6061  138.2679  162.4204 C.3     1  UNL1        0.0718
     19 N         141.6176  139.0441  164.0294 N.ar    1  UNL1       -0.3202
     20 C         142.9861  139.2305  167.6189 C.3     1  UNL1        0.1405
     21 C         140.8302  140.2891  170.7782 C.3     1  UNL1        0.0853
     22 C         139.9618  142.6901  170.2975 C.3     1  UNL1        0.0005
     23 C         140.6970  141.7275  171.1823 C.3     1  UNL1        0.0096
     24 C         140.6819  139.1746  163.0359 C.3     1  UNL1        0.0741
     25 C         141.0378  140.3407  163.9096 C.3     1  UNL1        0.0414
     26 C         141.1437  141.7155  163.3190 C.3     1  UNL1        0.0955
     27 C         139.9847  142.6631  163.4121 C.ar    1  UNL1       -0.0022
     28 C         139.0135  142.7741  162.2743 C.ar    1  UNL1       -0.0025
     29 C         137.8544  143.7216  162.3673 C.ar    1  UNL1        0.0020
     30 C         137.6665  144.5583  163.5980 C.ar    1  UNL1        0.0296
     31 C         138.6377  144.4473  164.7358 C.ar    1  UNL1        0.1399
     32 F         138.6012  145.2032  166.0309 F       1  UNL1       -0.2042
     33 C         139.7968  143.4997  164.6428 C.ar    1  UNL1        0.0270
     34 N         142.4087  142.1427  162.6355 N.am    1  UNL1       -0.3021
     35 C         143.6803  142.2680  163.4212 C.2     1  UNL1        0.2232
     36 C         144.9453  142.6951  162.7378 C.3     1  UNL1        0.0946
     37 O         144.0411  142.0522  164.8612 O.2     1  UNL1       -0.2751
     38 H         142.4044  142.3409  161.6712 H       1  UNL1        0.1497
@<TRIPOS>BOND
     1    22    23    1
     2    23    21    1
     3    21     9    1
     4     9    10    2
     5     9    11   am
     6    11    12    1
     7    12    13    1
     8    13    14    1
     9    14    15   ar
    10    15    16   ar
    11    16    17   ar
    12    17    18    1
    13    17    19   ar
    14     1    19    1
    15     1     2    1
    16     3     2    1
    17     3     4    1
    18     4     5    1
    19     6     5    1
    20     6     7    1
    21     6     8    1
    22     8    24    1
    23    24    25    1
    24    26    25    1
    25    26    34    1
    26    34    35   am
    27    35    36    1
    28    35    37    2
    29    26    27    1
    30    27    28   ar
    31    28    29   ar
    32    29    30   ar
    33    30    31   ar
    34    31    32    1
    35    31    33   ar
    36    15    20    1
    37    20    11    1
    38    19    14   ar
    39     7     1    1
    40    33    27   ar
    41     8     3    1
    42    34    38    1
@<TRIPOS>MOLECULE
*****
 38 42 0 0 0
SMALL
GASTEIGER

@<TRIPOS>ATOM
      1 C         142.7822  140.0775  165.3442 C.3     1  UNL1        0.0890
      2 C         142.6182  139.2588  166.5903 C.3     1  UNL1        0.0386
      3 C         142.7112  139.9145  167.9362 C.3     1  UNL1        0.0594
      4 C         142.8748  140.9472  169.0117 C.3     1  UNL1        0.0174
      5 C         143.1179  142.2712  168.3499 C.3     1  UNL1        0.0174
      6 C         143.1046  142.0567  166.8653 C.3     1  UNL1        0.0594
      7 C         143.0392  141.5519  165.4440 C.3     1  UNL1        0.0386
      8 N         142.8532  140.6002  166.6097 N.3     1  UNL1       -0.2750
      9 C         144.2911  140.9305  158.4429 C.2     1  UNL1        0.2259
     10 O         144.0735  140.0595  157.2412 O.2     1  UNL1       -0.2749
     11 N         143.9174  140.6204  159.8621 N.am    1  UNL1       -0.2734
     12 C         144.2103  141.6122  160.9486 C.3     1  UNL1        0.1000
     13 C         143.8366  141.3022  162.3679 C.3     1  UNL1        0.0666
     14 C         143.1699  140.0004  162.7006 C.ar    1  UNL1        0.0549
     15 C         142.8770  139.0086  161.6141 C.ar    1  UNL1        0.0919
     16 N         142.2151  137.8170  162.2404 N.ar    1  UNL1       -0.2339
     17 C         142.0991  138.0724  163.7139 C.ar    1  UNL1        0.1201
     18 C         141.4984  137.1418  164.7255 C.3     1  UNL1        0.0718
     19 N         142.6892  139.4218  163.9983 N.ar    1  UNL1       -0.3202
     20 C         143.2507  139.3186  160.1949 C.3     1  UNL1        0.1405
     21 C         144.9577  142.2323  158.1102 C.3     1  UNL1        0.0853
     22 C         147.3431  142.9640  157.3857 C.3     1  UNL1        0.0005
     23 C         146.0462  142.2755  157.0789 C.3     1  UNL1        0.0096
     24 C         142.7602  139.9445  165.2638 C.3     1  UNL1        0.0741
     25 C         141.6128  140.2634  164.3519 C.3     1  UNL1        0.0414
     26 C         140.3801  140.9203  164.8988 C.3     1  UNL1        0.0955
     27 C         139.9698  142.2754  164.4035 C.ar    1  UNL1       -0.0022
     28 C         140.1241  142.6218  162.9523 C.ar    1  UNL1       -0.0025
     29 C         139.7138  143.9768  162.4568 C.ar    1  UNL1        0.0020
     30 C         139.1490  144.9855  163.4127 C.ar    1  UNL1        0.0296
     31 C         138.9947  144.6391  164.8640 C.ar    1  UNL1        0.1399
     32 F         138.4522  145.5204  165.9498 F       1  UNL1       -0.2042
     33 C         139.4051  143.2840  165.3594 C.ar    1  UNL1        0.0270
     34 N         139.5579  140.2221  165.9411 N.am    1  UNL1       -0.3021
     35 C         138.6655  139.0809  165.5520 C.2     1  UNL1        0.2232
     36 C         137.8433  138.3827  166.5942 C.3     1  UNL1        0.0946
     37 O         138.3579  138.3942  164.2544 O.2     1  UNL1       -0.2751
     38 H         139.6040  140.5128  166.8806 H       1  UNL1        0.1497
@<TRIPOS>BOND
     1    22    23    1
     2    23    21    1
     3    21     9    1
     4     9    10    2
     5     9    11   am
     6    11    12    1
     7    12    13    1
     8    13    14    1
     9    14    15   ar
    10    15    16   ar
    11    16    17   ar
    12    17    18    1
    13    17    19   ar
    14     1    19    1
    15     1     2    1
    16     3     2    1
    17     3     4    1
    18     4     5    1
    19     6     5    1
    20     6     7    1
    21     6     8    1
    22     8    24    1
    23    24    25    1
    24    26    25    1
    25    26    34    1
    26    34    35   am
    27    35    36    1
    28    35    37    2
    29    26    27    1
    30    27    28   ar
    31    28    29   ar
    32    29    30   ar
    33    30    31   ar
    34    31    32    1
    35    31    33   ar
    36    15    20    1
    37    20    11    1
    38    19    14   ar
    39     7     1    1
    40    33    27   ar
    41     8     3    1
    42    34    38    1
@<TRIPOS>MOLECULE
*****
 38 42 0 0 0
SMALL
GASTEIGER

@<TRIPOS>ATOM
      1 C         140.5152  139.2924  162.8510 C.3     1  UNL1        0.0890
      2 C         139.0988  138.9345  163.1912 C.3     1  UNL1        0.0386
      3 C         138.0186  139.0874  162.1618 C.3     1  UNL1        0.0594
      4 C         137.3039  139.3878  160.8777 C.3     1  UNL1        0.0174
      5 C         138.3157  139.8894  159.8904 C.3     1  UNL1        0.0174
      6 C         139.6557  139.8989  160.5644 C.3     1  UNL1        0.0594
      7 C         140.8512  139.8032  161.4813 C.3     1  UNL1        0.0386
      8 N         139.4721  139.4033  161.9681 N.3     1  UNL1       -0.2750
      9 C         141.9309  139.8963  169.7981 C.2     1  UNL1        0.2259
     10 O         143.1746  139.6658  170.6043 O.2     1  UNL1       -0.2749
     11 N         141.7714  139.7278  168.3162 N.am    1  UNL1       -0.2734
     12 C         140.4470  140.0035  167.6682 C.3     1  UNL1        0.1000
     13 C         140.2876  139.8350  166.1862 C.3     1  UNL1        0.0666
     14 C         141.4525  139.3907  165.3523 C.ar    1  UNL1        0.0549
     15 C         142.7769  139.1150  166.0003 C.ar    1  UNL1        0.0919
     16 N         143.7383  138.6933  164.9288 N.ar    1  UNL1       -0.2339
     17 C         143.0081  138.7085  163.6187 C.ar    1  UNL1        0.1201
     18 C         143.5886  138.3547  162.2815 C.3     1  UNL1        0.0718
     19 N         141.5954  139.1395  163.8804 N.ar    1  UNL1       -0.3202
     20 C         142.9363  139.2835  167.4822 C.3     1  UNL1        0.1405
     21 C         140.7660  140.3405  170.6321 C.3     1  UNL1        0.0853
     22 C         139.9824  142.7813  170.2091 C.3     1  UNL1        0.0005
     23 C         140.6654  141.7686  171.0799 C.3     1  UNL1        0.0096
     24 C         140.5523  139.2504  162.9976 C.3     1  UNL1        0.0741
     25 C         141.5436  140.3551  163.2143 C.3     1  UNL1        0.0414
     26 C         141.0647  141.7568  163.4507 C.3     1  UNL1        0.0955
     27 C         142.0549  142.8557  163.6996 C.ar    1  UNL1       -0.0022
     28 C         142.0709  144.0657  162.8132 C.ar    1  UNL1       -0.0025
     29 C         143.0610  145.1646  163.0619 C.ar    1  UNL1        0.0020
     30 C         144.0353  145.0536  164.1972 C.ar    1  UNL1        0.0296
     31 C         144.0193  143.8436  165.0835 C.ar    1  UNL1        0.1399
     32 F         144.9153  143.5708  166.2551 F       1  UNL1       -0.2042
     33 C         143.0291  142.7446  164.8347 C.ar    1  UNL1        0.0270
     34 N         139.5957  142.0596  163.4383 N.am    1  UNL1       -0.3021
     35 C         138.9895  142.8792  164.5387 C.2     1  UNL1        0.2232
     36 C         137.5205  143.1821  164.5264 C.3     1  UNL1        0.0946
     37 O         139.5369  143.5376  165.7704 O.2     1  UNL1       -0.2751
     38 H         139.0293  141.7204  162.7080 H       1  UNL1        0.1497
@<TRIPOS>BOND
     1    22    23    1
     2    23    21    1
     3    21     9    1
     4     9    10    2
     5     9    11   am
     6    11    12    1
     7    12    13    1
     8    13    14    1
     9    14    15   ar
    10    15    16   ar
    11    16    17   ar
    12    17    18    1
    13    17    19   ar
    14     1    19    1
    15     1     2    1
    16     3     2    1
    17     3     4    1
    18     4     5    1
    19     6     5    1
    20     6     7    1
    21     6     8    1
    22     8    24    1
    23    24    25    1
    24    26    25    1
    25    26    34    1
    26    34    35   am
    27    35    36    1
    28    35    37    2
    29    26    27    1
    30    27    28   ar
    31    28    29   ar
    32    29    30   ar
    33    30    31   ar
    34    31    32    1
    35    31    33   ar
    36    15    20    1
    37    20    11    1
    38    19    14   ar
    39     7     1    1
    40    33    27   ar
    41     8     3    1
    42    34    38    1
@<TRIPOS>MOLECULE
*****
 38 42 0 0 0
SMALL
GASTEIGER

@<TRIPOS>ATOM
      1 C         141.4072  138.9501  163.4106 C.3     1  UNL1        0.0890
      2 C         142.5888  139.8643  163.2763 C.3     1  UNL1        0.0386
      3 C         143.4851  139.7604  162.0781 C.3     1  UNL1        0.0594
      4 C         144.0759  139.3168  160.7726 C.3     1  UNL1        0.0174
      5 C         143.2289  138.2012  160.2358 C.3     1  UNL1        0.0174
      6 C         142.1148  137.9553  161.2096 C.3     1  UNL1        0.0594
      7 C         141.1219  137.9321  162.3466 C.3     1  UNL1        0.0386
      8 N         142.2731  138.9189  162.3481 N.3     1  UNL1       -0.2750
      9 C         140.5075  142.3194  169.6130 C.2     1  UNL1        0.2259
     10 O         139.4569  142.2201  170.6790 O.2     1  UNL1       -0.2749
     11 N         140.5745  141.5360  168.3357 N.am    1  UNL1       -0.2734
     12 C         141.7036  141.7632  167.3747 C.3     1  UNL1        0.1000
     13 C         141.7706  140.9798  166.0974 C.3     1  UNL1        0.0666
     14 C         140.7084  139.9690  165.7809 C.ar    1  UNL1        0.0549
     15 C         139.5793  139.7418  166.7418 C.ar    1  UNL1        0.0919
     16 N         138.6838  138.6863  166.1636 N.ar    1  UNL1       -0.2339
     17 C         139.2596  138.2613  164.8453 C.ar    1  UNL1        0.1201
     18 C         138.6850  137.2254  163.9251 C.3     1  UNL1        0.0718
     19 N         140.5108  139.0541  164.6088 N.ar    1  UNL1       -0.3202
     20 C         139.5124  140.5252  168.0192 C.3     1  UNL1        0.1405
     21 C         141.5697  143.3302  169.9295 C.3     1  UNL1        0.0853
     22 C         144.0440  142.5394  169.8783 C.3     1  UNL1        0.0005
     23 C         142.8141  142.9089  170.6534 C.3     1  UNL1        0.0096
     24 C         141.3768  139.0228  163.5463 C.3     1  UNL1        0.0741
     25 C         140.0077  139.6202  163.4093 C.3     1  UNL1        0.0414
     26 C         139.8166  140.8861  162.6276 C.3     1  UNL1        0.0955
     27 C         139.5710  142.1805  163.3447 C.ar    1  UNL1       -0.0022
     28 C         138.2379  142.4452  163.9794 C.ar    1  UNL1       -0.0025
     29 C         137.9923  143.7395  164.6964 C.ar    1  UNL1        0.0020
     30 C         139.0798  144.7694  164.7788 C.ar    1  UNL1        0.0296
     31 C         140.4129  144.5048  164.1442 C.ar    1  UNL1        0.1399
     32 F         141.6034  145.4171  164.1308 F       1  UNL1       -0.2042
     33 C         140.6585  143.2103  163.4271 C.ar    1  UNL1        0.0270
     34 N         139.8710  140.8576  161.1289 N.am    1  UNL1       -0.3021
     35 C         138.8398  140.0905  160.3554 C.2     1  UNL1        0.2232
     36 C         138.8942  140.0619  158.8567 C.3     1  UNL1        0.0946
     37 O         137.6500  139.2627  160.7417 O.2     1  UNL1       -0.2751
     38 H         140.5835  141.3423  160.6529 H       1  UNL1        0.1497
@<TRIPOS>BOND
     1    22    23    1
     2    23    21    1
     3    21     9    1
     4     9    10    2
     5     9    11   am
     6    11    12    1
     7    12    13    1
     8    13    14    1
     9    14    15   ar
    10    15    16   ar
    11    16    17   ar
    12    17    18    1
    13    17    19   ar
    14     1    19    1
    15     1     2    1
    16     3     2    1
    17     3     4    1
    18     4     5    1
    19     6     5    1
    20     6     7    1
    21     6     8    1
    22     8    24    1
    23    24    25    1
    24    26    25    1
    25    26    34    1
    26    34    35   am
    27    35    36    1
    28    35    37    2
    29    26    27    1
    30    27    28   ar
    31    28    29   ar
    32    29    30   ar
    33    30    31   ar
    34    31    32    1
    35    31    33   ar
    36    15    20    1
    37    20    11    1
    38    19    14   ar
    39     7     1    1
    40    33    27   ar
    41     8     3    1
    42    34    38    1
@<TRIPOS>MOLECULE
*****
 38 42 0 0 0
SMALL
GASTEIGER

@<TRIPOS>ATOM
      1 C         139.3351  142.8437  163.0795 C.3     1  UNL1        0.0890
      2 C         139.3652  144.2603  163.5718 C.3     1  UNL1        0.0386
      3 C         139.6210  145.3830  162.6105 C.3     1  UNL1        0.0594
      4 C         139.8992  146.1457  161.3492 C.3     1  UNL1        0.0174
      5 C         140.0121  145.1582  160.2257 C.3     1  UNL1        0.0174
      6 C         139.8037  143.7852  160.7928 C.3     1  UNL1        0.0594
      7 C         139.5607  142.5499  161.6260 C.3     1  UNL1        0.0386
      8 N         139.5620  143.9242  162.2666 N.3     1  UNL1       -0.2750
      9 C         140.3287  140.7193  169.7975 C.2     1  UNL1        0.2259
     10 O         139.9442  139.4708  170.5346 O.2     1  UNL1       -0.2749
     11 N         140.0507  141.0402  168.3588 N.am    1  UNL1       -0.2734
     12 C         140.5101  142.3451  167.7791 C.3     1  UNL1        0.1000
     13 C         140.2322  142.6659  166.3404 C.3     1  UNL1        0.0666
     14 C         139.4948  141.6819  165.4815 C.ar    1  UNL1        0.0549
     15 C         139.0355  140.3769  166.0611 C.ar    1  UNL1        0.0919
     16 N         138.3360  139.6094  164.9786 N.ar    1  UNL1       -0.2339
     17 C         138.3631  140.4401  163.7299 C.ar    1  UNL1        0.1201
     18 C         137.7769  140.0572  162.4033 C.3     1  UNL1        0.0718
     19 N         139.0793  141.7209  164.0407 N.ar    1  UNL1       -0.3202
     20 C         139.3134  140.0561  167.4998 C.3     1  UNL1        0.1405
     21 C         141.0660  141.7034  170.6565 C.3     1  UNL1        0.0853
     22 C         143.4525  142.4301  169.9308 C.3     1  UNL1        0.0005
     23 C         142.5554  141.6027  170.8030 C.3     1  UNL1        0.0096
     24 C         139.3062  142.8014  163.2278 C.3     1  UNL1        0.0741
     25 C         140.1734  141.5778  163.1998 C.3     1  UNL1        0.0414
     26 C         141.6636  141.7169  163.1000 C.3     1  UNL1        0.0955
     27 C         142.4669  140.6785  162.3743 C.ar    1  UNL1       -0.0022
     28 C         143.2051  139.6260  163.1471 C.ar    1  UNL1       -0.0025
     29 C         144.0083  138.5877  162.4216 C.ar    1  UNL1        0.0020
     30 C         144.0734  138.6017  160.9230 C.ar    1  UNL1        0.0296
     31 C         143.3351  139.6542  160.1502 C.ar    1  UNL1        0.1399
     32 F         143.2911  139.8154  158.6595 F       1  UNL1       -0.2042
     33 C         142.5318  140.6926  160.8758 C.ar    1  UNL1        0.0270
     34 N         142.3506  142.8942  163.7260 N.am    1  UNL1       -0.3021
     35 C         143.0222  143.9183  162.8599 C.2     1  UNL1        0.2232
     36 C         143.7092  145.0957  163.4858 C.3     1  UNL1        0.0946
     37 O         143.1971  144.0772  161.3786 O.2     1  UNL1       -0.2751
     38 H         142.3607  142.9948  164.7053 H       1  UNL1        0.1497
@<TRIPOS>BOND
     1    22    23    1
     2    23    21    1
     3    21     9    1
     4     9    10    2
     5     9    11   am
     6    11    12    1
     7    12    13    1
     8    13    14    1
     9    14    15   ar
    10    15    16   ar
    11    16    17   ar
    12    17    18    1
    13    17    19   ar
    14     1    19    1
    15     1     2    1
    16     3     2    1
    17     3     4    1
    18     4     5    1
    19     6     5    1
    20     6     7    1
    21     6     8    1
    22     8    24    1
    23    24    25    1
    24    26    25    1
    25    26    34    1
    26    34    35   am
    27    35    36    1
    28    35    37    2
    29    26    27    1
    30    27    28   ar
    31    28    29   ar
    32    29    30   ar
    33    30    31   ar
    34    31    32    1
    35    31    33   ar
    36    15    20    1
    37    20    11    1
    38    19    14   ar
    39     7     1    1
    40    33    27   ar
    41     8     3    1
    42    34    38    1
@<TRIPOS>MOLECULE
*****
 38 42 0 0 0
SMALL
GASTEIGER

@<TRIPOS>ATOM
      1 C         139.1334  141.4328  163.6529 C.3     1  UNL1        0.0890
      2 C         139.9635  140.2772  163.1780 C.3     1  UNL1        0.0386
      3 C         139.8808  138.9551  163.8816 C.3     1  UNL1        0.0594
      4 C         139.4911  137.8740  164.8456 C.3     1  UNL1        0.0174
      5 C         138.4846  138.4449  165.8003 C.3     1  UNL1        0.0174
      6 C         138.2524  139.8788  165.4261 C.3     1  UNL1        0.0594
      7 C         138.2205  141.2661  164.8313 C.3     1  UNL1        0.0386
      8 N         139.1152  140.1941  164.2403 N.3     1  UNL1       -0.2750
      9 C         141.9134  144.7488  158.0043 C.2     1  UNL1        0.2259
     10 O         141.8278  146.1639  157.5143 O.2     1  UNL1       -0.2749
     11 N         141.2665  144.1775  159.2311 N.am    1  UNL1       -0.2734
     12 C         141.4581  142.7301  159.5751 C.3     1  UNL1        0.1000
     13 C         140.8112  142.1588  160.8019 C.3     1  UNL1        0.0666
     14 C         139.9726  143.0348  161.6847 C.ar    1  UNL1        0.0549
     15 C         139.7810  144.4822  161.3407 C.ar    1  UNL1        0.0919
     16 N         138.9061  145.0969  162.3927 N.ar    1  UNL1       -0.2339
     17 C         138.5570  144.0293  163.3870 C.ar    1  UNL1        0.1201
     18 C         137.6993  144.2053  164.6050 C.3     1  UNL1        0.0718
     19 N         139.2161  142.7550  162.9494 N.ar    1  UNL1       -0.3202
     20 C         140.4279  145.0535  160.1139 C.3     1  UNL1        0.1405
     21 C         142.7520  143.8728  157.1215 C.3     1  UNL1        0.0853
     22 C         143.2069  144.4645  154.6329 C.3     1  UNL1        0.0005
     23 C         142.4108  143.7265  155.6681 C.3     1  UNL1        0.0096
     24 C         139.1980  141.5162  163.5368 C.3     1  UNL1        0.0741
     25 C         139.8936  142.6723  164.1922 C.3     1  UNL1        0.0414
     26 C         141.2285  142.4715  164.8463 C.3     1  UNL1        0.0955
     27 C         141.3056  141.9243  166.2408 C.ar    1  UNL1       -0.0022
     28 C         140.5889  142.6197  167.3600 C.ar    1  UNL1       -0.0025
     29 C         140.6660  142.0726  168.7545 C.ar    1  UNL1        0.0020
     30 C         141.4600  140.8300  169.0298 C.ar    1  UNL1        0.0296
     31 C         142.1767  140.1347  167.9106 C.ar    1  UNL1        0.1399
     32 F         143.0097  138.8910  168.0068 F       1  UNL1       -0.2042
     33 C         142.0995  140.6818  166.5160 C.ar    1  UNL1        0.0270
     34 N         142.4861  142.8178  164.1058 N.am    1  UNL1       -0.3021
     35 C         142.7511  144.2375  163.7006 C.2     1  UNL1        0.2232
     36 C         144.0087  144.5840  162.9601 C.3     1  UNL1        0.0946
     37 O         142.0005  145.5258  163.8658 O.2     1  UNL1       -0.2751
     38 H         143.1377  142.1134  163.8858 H       1  UNL1        0.1497
@<TRIPOS>BOND
     1    22    23    1
     2    23    21    1
     3    21     9    1
     4     9    10    2
     5     9    11   am
     6    11    12    1
     7    12    13    1
     8    13    14    1
     9    14    15   ar
    10    15    16   ar
    11    16    17   ar
    12    17    18    1
    13    17    19   ar
    14     1    19    1
    15     1     2    1
    16     3     2    1
    17     3     4    1
    18     4     5    1
    19     6     5    1
    20     6     7    1
    21     6     8    1
    22     8    24    1
    23    24    25    1
    24    26    25    1
    25    26    34    1
    26    34    35   am
    27    35    36    1
    28    35    37    2
    29    26    27    1
    30    27    28   ar
    31    28    29   ar
    32    29    30   ar
    33    30    31   ar
    34    31    32    1
    35    31    33   ar
    36    15    20    1
    37    20    11    1
    38    19    14   ar
    39     7     1    1
    40    33    27   ar
    41     8     3    1
    42    34    38    1
