@<TRIPOS>MOLECULE
*****
 36 40 0 0 0
SMALL
GASTEIGER

@<TRIPOS>ATOM
      1 N         137.8220  142.9577  162.8604 N.3     1  UNL1       -0.2711
      2 C         138.0546  142.6391  161.4132 C.3     1  UNL1        0.0735
      3 C         138.0856  141.2112  160.9552 C.3     1  UNL1        0.0331
      4 C         137.8838  140.1017  161.9444 C.3     1  UNL1        0.0570
      5 C         137.6512  140.4203  163.3916 C.3     1  UNL1        0.0331
      6 C         137.6203  141.8483  163.8496 C.3     1  UNL1        0.0735
      7 N         137.9148  138.6737  161.4863 N.3     1  UNL1       -0.2934
      8 H         137.3324  138.6198  160.6507 H       1  UNL1        0.1236
      9 C         139.2229  138.0236  161.1452 C.3     1  UNL1        0.1152
     10 C         140.4121  138.2172  162.0387 C.ar    1  UNL1        0.0765
     11 C         140.5506  137.4019  163.2900 C.ar    1  UNL1        0.0193
     12 C         141.7399  137.5955  164.1835 C.ar    1  UNL1        0.0411
     13 C         142.7905  138.6044  163.8256 C.ar    1  UNL1        0.1708
     14 C         142.6520  139.4197  162.5741 C.ar    1  UNL1        0.1682
     15 N         141.4628  139.2261  161.6807 N.ar    1  UNL1       -0.2304
     16 N         143.7027  140.4286  162.2161 N.am    1  UNL1       -0.2639
     17 C         144.8919  140.6222  163.1096 C.2     1  UNL1        0.2718
     18 O         145.9426  141.6311  162.7517 O.2     1  UNL1       -0.2707
     19 C         145.0305  139.8069  164.3610 C.3     1  UNL1        0.2898
     20 O         143.9798  138.7980  164.7190 O.3     1  UNL1       -0.4628
     21 H         143.6117  140.9638  161.3948 H       1  UNL1        0.1565
     22 C         137.7911  144.3858  163.3184 C.3     1  UNL1        0.0944
     23 C         138.8230  144.8858  164.2855 C.3     1  UNL1        0.1188
     24 C         140.8938  142.1512  167.1982 C.ar    1  UNL1        0.1400
     25 C         142.3388  141.8009  167.0006 C.ar    1  UNL1        0.0368
     26 C         143.0937  142.3622  165.8322 C.ar    1  UNL1        0.0037
     27 C         142.4034  143.2737  164.8613 C.ar    1  UNL1        0.0353
     28 C         140.9583  143.6240  165.0589 C.ar    1  UNL1        0.0595
     29 C         140.2035  143.0627  166.2273 C.ar    1  UNL1        0.0517
     30 N         140.2680  144.5355  164.0880 N.am    1  UNL1       -0.2237
     31 C         141.0228  145.0968  162.9196 C.2     1  UNL1        0.4090
     32 O         140.3326  146.0083  161.9487 O.2     1  UNL1       -0.2258
     33 O         142.4680  144.7465  162.7221 O.3     1  UNL1       -0.4293
     34 C         143.1582  143.8350  163.6929 C.3     1  UNL1        0.2380
     35 C         140.0287  140.1046  168.5447 C.3     1  UNL1        0.2525
     36 O         140.1390  141.5899  168.3666 O.3     1  UNL1       -0.4714
@<TRIPOS>BOND
     1    35    36    1
     2    36    24    1
     3    24    25   ar
     4    25    26   ar
     5    26    27   ar
     6    27    28   ar
     7    28    29   ar
     8    28    30    1
     9    30    23    1
    10    23    22    1
    11    22     1    1
    12     1     2    1
    13     2     3    1
    14     3     4    1
    15     4     7    1
    16     7     9    1
    17     9    10    1
    18    10    11   ar
    19    11    12   ar
    20    12    13   ar
    21    13    14   ar
    22    14    15   ar
    23    14    16    1
    24    16    17   am
    25    17    18    2
    26    17    19    1
    27    19    20    1
    28     4     5    1
    29     5     6    1
    30    30    31   am
    31    31    32    2
    32    31    33    1
    33    33    34    1
    34    29    24   ar
    35     6     1    1
    36    34    27    1
    37    15    10   ar
    38    20    13    1
    39     7     8    1
    40    16    21    1
@<TRIPOS>MOLECULE
*****
 36 40 0 0 0
SMALL
GASTEIGER

@<TRIPOS>ATOM
      1 N         141.3842  138.3477  163.2047 N.3     1  UNL1       -0.2711
      2 C         142.3500  138.5119  164.3406 C.3     1  UNL1        0.0735
      3 C         143.6549  139.2179  164.1194 C.3     1  UNL1        0.0331
      4 C         143.9938  139.7597  162.7624 C.3     1  UNL1        0.0570
      5 C         143.0280  139.5955  161.6266 C.3     1  UNL1        0.0331
      6 C         141.7232  138.8895  161.8477 C.3     1  UNL1        0.0735
      7 N         145.2987  140.4657  162.5412 N.3     1  UNL1       -0.2934
      8 H         145.4764  140.4484  161.5369 H       1  UNL1        0.1236
      9 C         145.4666  141.8883  162.9862 C.3     1  UNL1        0.1152
     10 C         144.2926  142.8219  162.9726 C.ar    1  UNL1        0.0765
     11 C         143.7821  143.4035  164.2574 C.ar    1  UNL1        0.0193
     12 C         142.6080  144.3372  164.2439 C.ar    1  UNL1        0.0411
     13 C         141.9447  144.6891  162.9454 C.ar    1  UNL1        0.1708
     14 C         142.4553  144.1074  161.6605 C.ar    1  UNL1        0.1682
     15 N         143.6293  143.1738  161.6741 N.ar    1  UNL1       -0.2304
     16 N         141.7919  144.4593  160.3620 N.am    1  UNL1       -0.2639
     17 C         140.6179  145.3930  160.3484 C.2     1  UNL1        0.2718
     18 O         139.9545  145.7449  159.0499 O.2     1  UNL1       -0.2707
     19 C         140.1073  145.9746  161.6333 C.3     1  UNL1        0.2898
     20 O         140.7707  145.6227  162.9318 O.3     1  UNL1       -0.4628
     21 H         142.1271  144.0776  159.5186 H       1  UNL1        0.1565
     22 C         140.0793  137.6417  163.4259 C.3     1  UNL1        0.0944
     23 C         138.9490  138.3517  164.1103 C.3     1  UNL1        0.1188
     24 C         140.0552  141.9473  166.5797 C.ar    1  UNL1        0.1400
     25 C         139.6496  143.3196  166.1300 C.ar    1  UNL1        0.0368
     26 C         138.8752  143.4933  164.8572 C.ar    1  UNL1        0.0037
     27 C         138.5064  142.2948  164.0341 C.ar    1  UNL1        0.0353
     28 C         138.9121  140.9226  164.4838 C.ar    1  UNL1        0.0595
     29 C         139.6865  140.7488  165.7566 C.ar    1  UNL1        0.0517
     30 N         138.5434  139.7240  163.6606 N.am    1  UNL1       -0.2237
     31 C         137.7690  139.8977  162.3878 C.2     1  UNL1        0.4090
     32 O         137.4002  138.6992  161.5647 O.2     1  UNL1       -0.2258
     33 O         137.3633  141.2701  161.9381 O.3     1  UNL1       -0.4293
     34 C         137.7320  142.4686  162.7612 C.3     1  UNL1        0.2380
     35 C         140.8292  142.8614  168.8852 C.3     1  UNL1        0.2525
     36 O         140.8296  141.7735  167.8526 O.3     1  UNL1       -0.4714
@<TRIPOS>BOND
     1    35    36    1
     2    36    24    1
     3    24    25   ar
     4    25    26   ar
     5    26    27   ar
     6    27    28   ar
     7    28    29   ar
     8    28    30    1
     9    30    23    1
    10    23    22    1
    11    22     1    1
    12     1     2    1
    13     2     3    1
    14     3     4    1
    15     4     7    1
    16     7     9    1
    17     9    10    1
    18    10    11   ar
    19    11    12   ar
    20    12    13   ar
    21    13    14   ar
    22    14    15   ar
    23    14    16    1
    24    16    17   am
    25    17    18    2
    26    17    19    1
    27    19    20    1
    28     4     5    1
    29     5     6    1
    30    30    31   am
    31    31    32    2
    32    31    33    1
    33    33    34    1
    34    29    24   ar
    35     6     1    1
    36    34    27    1
    37    15    10   ar
    38    20    13    1
    39     7     8    1
    40    16    21    1
@<TRIPOS>MOLECULE
*****
 36 40 0 0 0
SMALL
GASTEIGER

@<TRIPOS>ATOM
      1 N         142.9419  144.2306  163.1020 N.3     1  UNL1       -0.2711
      2 C         141.6776  144.8714  163.5930 C.3     1  UNL1        0.0735
      3 C         140.3977  144.6835  162.8339 C.3     1  UNL1        0.0331
      4 C         140.3820  143.8548  161.5837 C.3     1  UNL1        0.0570
      5 C         141.6462  143.2141  161.0926 C.3     1  UNL1        0.0331
      6 C         142.9262  143.4020  161.8518 C.3     1  UNL1        0.0735
      7 N         139.1020  143.6669  160.8244 N.3     1  UNL1       -0.2934
      8 H         139.3406  143.1788  159.9611 H       1  UNL1        0.1236
      9 C         137.9642  142.9137  161.4474 C.3     1  UNL1        0.1152
     10 C         138.2144  141.5937  162.1144 C.ar    1  UNL1        0.0765
     11 C         138.8110  140.4602  161.3340 C.ar    1  UNL1        0.0193
     12 C         139.0613  139.1401  162.0011 C.ar    1  UNL1        0.0411
     13 C         138.7150  138.9537  163.4486 C.ar    1  UNL1        0.1708
     14 C         138.1184  140.0874  164.2291 C.ar    1  UNL1        0.1682
     15 N         137.8682  141.4073  163.5620 N.ar    1  UNL1       -0.2304
     16 N         137.7721  139.9010  165.6766 N.am    1  UNL1       -0.2639
     17 C         138.0224  138.5810  166.3437 C.2     1  UNL1        0.2718
     18 O         137.6762  138.3946  167.7912 O.2     1  UNL1       -0.2707
     19 C         138.6190  137.4474  165.5632 C.3     1  UNL1        0.2898
     20 O         138.9652  137.6338  164.1157 O.3     1  UNL1       -0.4628
     21 H         137.3806  140.6450  166.1888 H       1  UNL1        0.1565
     22 C         144.2219  144.4185  163.8612 C.3     1  UNL1        0.0944
     23 C         144.5401  143.5293  165.0266 C.3     1  UNL1        0.1188
     24 C         141.1997  141.8489  167.5302 C.ar    1  UNL1        0.1400
     25 C         140.8780  140.3853  167.4666 C.ar    1  UNL1        0.0368
     26 C         141.6698  139.4817  166.5684 C.ar    1  UNL1        0.0037
     27 C         142.7832  140.0418  165.7339 C.ar    1  UNL1        0.0353
     28 C         143.1049  141.5055  165.7975 C.ar    1  UNL1        0.0595
     29 C         142.3132  142.4090  166.6957 C.ar    1  UNL1        0.0517
     30 N         144.2184  142.0656  164.9630 N.am    1  UNL1       -0.2237
     31 C         145.0101  141.1621  164.0648 C.2     1  UNL1        0.4090
     32 O         146.1236  141.7222  163.2303 O.2     1  UNL1       -0.2258
     33 O         144.6884  139.6983  164.0012 O.3     1  UNL1       -0.4293
     34 C         143.5749  139.1382  164.8357 C.3     1  UNL1        0.2380
     35 C         140.9972  143.2260  169.7240 C.3     1  UNL1        0.2525
     36 O         140.4080  142.7525  168.4284 O.3     1  UNL1       -0.4714
@<TRIPOS>BOND
     1    35    36    1
     2    36    24    1
     3    24    25   ar
     4    25    26   ar
     5    26    27   ar
     6    27    28   ar
     7    28    29   ar
     8    28    30    1
     9    30    23    1
    10    23    22    1
    11    22     1    1
    12     1     2    1
    13     2     3    1
    14     3     4    1
    15     4     7    1
    16     7     9    1
    17     9    10    1
    18    10    11   ar
    19    11    12   ar
    20    12    13   ar
    21    13    14   ar
    22    14    15   ar
    23    14    16    1
    24    16    17   am
    25    17    18    2
    26    17    19    1
    27    19    20    1
    28     4     5    1
    29     5     6    1
    30    30    31   am
    31    31    32    2
    32    31    33    1
    33    33    34    1
    34    29    24   ar
    35     6     1    1
    36    34    27    1
    37    15    10   ar
    38    20    13    1
    39     7     8    1
    40    16    21    1
@<TRIPOS>MOLECULE
*****
 36 40 0 0 0
SMALL
GASTEIGER

@<TRIPOS>ATOM
      1 N         140.6227  139.9735  160.5999 N.3     1  UNL1       -0.2711
      2 C         141.3170  138.7055  161.0003 C.3     1  UNL1        0.0735
      3 C         142.7316  138.7497  161.4971 C.3     1  UNL1        0.0331
      4 C         143.4520  140.0618  161.5934 C.3     1  UNL1        0.0570
      5 C         142.7577  141.3298  161.1929 C.3     1  UNL1        0.0331
      6 C         141.3431  141.2856  160.6962 C.3     1  UNL1        0.0735
      7 N         144.8667  140.1061  162.0902 N.3     1  UNL1       -0.2934
      8 H         145.4042  140.6327  161.4016 H       1  UNL1        0.1236
      9 C         145.1726  140.7071  163.4301 C.3     1  UNL1        0.1152
     10 C         144.2626  140.4476  164.5939 C.ar    1  UNL1        0.0765
     11 C         144.0726  139.0485  165.0999 C.ar    1  UNL1        0.0193
     12 C         143.1625  138.7889  166.2638 C.ar    1  UNL1        0.0411
     13 C         142.4424  139.9287  166.9215 C.ar    1  UNL1        0.1708
     14 C         142.6325  141.3279  166.4154 C.ar    1  UNL1        0.1682
     15 N         143.5425  141.5874  165.2516 N.ar    1  UNL1       -0.2304
     16 N         141.9124  142.4676  167.0731 N.am    1  UNL1       -0.2639
     17 C         141.0024  142.2081  168.2369 C.2     1  UNL1        0.2718
     18 O         140.2823  143.3478  168.8946 O.2     1  UNL1       -0.2707
     19 C         140.8124  140.8089  168.7430 C.3     1  UNL1        0.2898
     20 O         141.5324  139.6692  168.0853 O.3     1  UNL1       -0.4628
     21 H         142.0371  143.3860  166.7409 H       1  UNL1        0.1565
     22 C         139.2080  139.9292  160.1031 C.3     1  UNL1        0.0944
     23 C         138.0769  140.2627  161.0300 C.3     1  UNL1        0.1188
     24 C         138.5571  144.3293  162.8961 C.ar    1  UNL1        0.1400
     25 C         138.8069  144.4534  164.3699 C.ar    1  UNL1        0.0368
     26 C         138.8966  143.2220  165.2217 C.ar    1  UNL1        0.0037
     27 C         138.7365  141.8665  164.5997 C.ar    1  UNL1        0.0353
     28 C         138.4867  141.7424  163.1259 C.ar    1  UNL1        0.0595
     29 C         138.3970  142.9738  162.2741 C.ar    1  UNL1        0.0517
     30 N         138.3267  140.3868  162.5038 N.am    1  UNL1       -0.2237
     31 C         138.4164  139.1554  163.3557 C.2     1  UNL1        0.4090
     32 O         138.2563  137.7999  162.7337 O.2     1  UNL1       -0.2258
     33 O         138.6662  139.2796  164.8295 O.3     1  UNL1       -0.4293
     34 C         138.8263  140.6351  165.4515 C.3     1  UNL1        0.2380
     35 C         139.7146  146.3020  161.6638 C.3     1  UNL1        0.2525
     36 O         138.4674  145.5607  162.0442 O.3     1  UNL1       -0.4714
@<TRIPOS>BOND
     1    35    36    1
     2    36    24    1
     3    24    25   ar
     4    25    26   ar
     5    26    27   ar
     6    27    28   ar
     7    28    29   ar
     8    28    30    1
     9    30    23    1
    10    23    22    1
    11    22     1    1
    12     1     2    1
    13     2     3    1
    14     3     4    1
    15     4     7    1
    16     7     9    1
    17     9    10    1
    18    10    11   ar
    19    11    12   ar
    20    12    13   ar
    21    13    14   ar
    22    14    15   ar
    23    14    16    1
    24    16    17   am
    25    17    18    2
    26    17    19    1
    27    19    20    1
    28     4     5    1
    29     5     6    1
    30    30    31   am
    31    31    32    2
    32    31    33    1
    33    33    34    1
    34    29    24   ar
    35     6     1    1
    36    34    27    1
    37    15    10   ar
    38    20    13    1
    39     7     8    1
    40    16    21    1
@<TRIPOS>MOLECULE
*****
 36 40 0 0 0
SMALL
GASTEIGER

@<TRIPOS>ATOM
      1 N         143.9601  141.5522  163.6783 N.3     1  UNL1       -0.2711
      2 C         143.9188  142.1096  162.2864 C.3     1  UNL1        0.0735
      3 C         143.2236  143.4118  162.0202 C.3     1  UNL1        0.0331
      4 C         142.5697  144.1566  163.1461 C.3     1  UNL1        0.0570
      5 C         142.6109  143.5992  164.5381 C.3     1  UNL1        0.0331
      6 C         143.3061  142.2970  164.8042 C.3     1  UNL1        0.0735
      7 N         141.8744  145.4589  162.8800 N.3     1  UNL1       -0.2934
      8 H         142.2996  145.8537  162.0411 H       1  UNL1        0.1236
      9 C         140.3898  145.4868  162.6673 C.3     1  UNL1        0.1152
     10 C         139.6417  144.2080  162.4329 C.ar    1  UNL1        0.0765
     11 C         138.9316  143.5354  163.5701 C.ar    1  UNL1        0.0193
     12 C         138.1833  142.2565  163.3357 C.ar    1  UNL1        0.0411
     13 C         138.1453  141.6504  161.9642 C.ar    1  UNL1        0.1708
     14 C         138.8554  142.3232  160.8269 C.ar    1  UNL1        0.1682
     15 N         139.6036  143.6019  161.0613 N.ar    1  UNL1       -0.2304
     16 N         138.8173  141.7171  159.4554 N.am    1  UNL1       -0.2639
     17 C         138.0691  140.4382  159.2210 C.2     1  UNL1        0.2718
     18 O         138.0310  139.8321  157.8495 O.2     1  UNL1       -0.2707
     19 C         137.3590  139.7656  160.3582 C.3     1  UNL1        0.2898
     20 O         137.3971  140.3717  161.7298 O.3     1  UNL1       -0.4628
     21 H         139.2834  142.1586  158.7090 H       1  UNL1        0.1565
     22 C         144.6553  140.2499  163.9444 C.3     1  UNL1        0.0944
     23 C         143.8803  139.0810  164.4763 C.3     1  UNL1        0.1188
     24 C         139.9404  139.7395  166.5485 C.ar    1  UNL1        0.1400
     25 C         138.6635  139.3206  165.8823 C.ar    1  UNL1        0.0368
     26 C         138.6997  138.6822  164.5255 C.ar    1  UNL1        0.0037
     27 C         140.0130  138.4627  163.8348 C.ar    1  UNL1        0.0353
     28 C         141.2900  138.8816  164.5009 C.ar    1  UNL1        0.0595
     29 C         141.2537  139.5200  165.8578 C.ar    1  UNL1        0.0517
     30 N         142.6033  138.6621  163.8102 N.am    1  UNL1       -0.2237
     31 C         142.6396  138.0236  162.4533 C.2     1  UNL1        0.4090
     32 O         143.9528  137.8041  161.7626 O.2     1  UNL1       -0.2258
     33 O         141.3625  137.6047  161.7872 O.3     1  UNL1       -0.4293
     34 C         140.0492  137.8243  162.4779 C.3     1  UNL1        0.2380
     35 C         140.4235  141.7727  168.0921 C.3     1  UNL1        0.2525
     36 O         139.9042  140.3779  167.9054 O.3     1  UNL1       -0.4714
@<TRIPOS>BOND
     1    35    36    1
     2    36    24    1
     3    24    25   ar
     4    25    26   ar
     5    26    27   ar
     6    27    28   ar
     7    28    29   ar
     8    28    30    1
     9    30    23    1
    10    23    22    1
    11    22     1    1
    12     1     2    1
    13     2     3    1
    14     3     4    1
    15     4     7    1
    16     7     9    1
    17     9    10    1
    18    10    11   ar
    19    11    12   ar
    20    12    13   ar
    21    13    14   ar
    22    14    15   ar
    23    14    16    1
    24    16    17   am
    25    17    18    2
    26    17    19    1
    27    19    20    1
    28     4     5    1
    29     5     6    1
    30    30    31   am
    31    31    32    2
    32    31    33    1
    33    33    34    1
    34    29    24   ar
    35     6     1    1
    36    34    27    1
    37    15    10   ar
    38    20    13    1
    39     7     8    1
    40    16    21    1
@<TRIPOS>MOLECULE
*****
 36 40 0 0 0
SMALL
GASTEIGER

@<TRIPOS>ATOM
      1 N         139.1615  142.6715  163.9791 N.3     1  UNL1       -0.2711
      2 C         139.4601  142.9890  162.5438 C.3     1  UNL1        0.0735
      3 C         140.6600  143.8178  162.1930 C.3     1  UNL1        0.0331
      4 C         141.5614  144.3292  163.2774 C.3     1  UNL1        0.0570
      5 C         141.2628  144.0117  164.7127 C.3     1  UNL1        0.0331
      6 C         140.0628  143.1828  165.0635 C.3     1  UNL1        0.0735
      7 N         142.7614  145.1580  162.9266 N.3     1  UNL1       -0.2934
      8 H         142.8706  145.8475  163.6703 H       1  UNL1        0.1236
      9 C         144.0982  144.5026  162.7440 C.3     1  UNL1        0.1152
     10 C         144.1953  143.0083  162.6581 C.ar    1  UNL1        0.0765
     11 C         144.7312  142.2236  163.8188 C.ar    1  UNL1        0.0193
     12 C         144.8283  140.7292  163.7329 C.ar    1  UNL1        0.0411
     13 C         144.3897  140.0195  162.4864 C.ar    1  UNL1        0.1708
     14 C         143.8538  140.8042  161.3257 C.ar    1  UNL1        0.1682
     15 N         143.7567  142.2986  161.4115 N.ar    1  UNL1       -0.2304
     16 N         143.4152  140.0945  160.0791 N.am    1  UNL1       -0.2639
     17 C         143.5123  138.6001  159.9933 C.2     1  UNL1        0.2718
     18 O         143.0737  137.8903  158.7467 O.2     1  UNL1       -0.2707
     19 C         144.0481  137.8154  161.1539 C.3     1  UNL1        0.2898
     20 O         144.4868  138.5251  162.4005 O.3     1  UNL1       -0.4628
     21 H         143.0635  140.6095  159.3173 H       1  UNL1        0.1565
     22 C         137.9614  141.8426  164.3299 C.3     1  UNL1        0.0944
     23 C         138.1403  140.4918  164.9568 C.3     1  UNL1        0.1188
     24 C         141.9122  139.7696  167.3024 C.ar    1  UNL1        0.1400
     25 C         142.9553  138.8299  166.7744 C.ar    1  UNL1        0.0368
     26 C         142.7412  138.1309  165.4646 C.ar    1  UNL1        0.0037
     27 C         141.4839  138.3716  164.6828 C.ar    1  UNL1        0.0353
     28 C         140.4408  139.3113  165.2107 C.ar    1  UNL1        0.0595
     29 C         140.6549  140.0103  166.5205 C.ar    1  UNL1        0.0517
     30 N         139.1835  139.5521  164.4289 N.am    1  UNL1       -0.2237
     31 C         138.9693  138.8531  163.1191 C.2     1  UNL1        0.4090
     32 O         137.7121  139.0938  162.3372 O.2     1  UNL1       -0.2258
     33 O         140.0126  137.9133  162.5911 O.3     1  UNL1       -0.4293
     34 C         141.2698  137.6726  163.3730 C.3     1  UNL1        0.2380
     35 C         141.2898  140.1037  169.8025 C.3     1  UNL1        0.2525
     36 O         142.1263  140.4686  168.6122 O.3     1  UNL1       -0.4714
@<TRIPOS>BOND
     1    35    36    1
     2    36    24    1
     3    24    25   ar
     4    25    26   ar
     5    26    27   ar
     6    27    28   ar
     7    28    29   ar
     8    28    30    1
     9    30    23    1
    10    23    22    1
    11    22     1    1
    12     1     2    1
    13     2     3    1
    14     3     4    1
    15     4     7    1
    16     7     9    1
    17     9    10    1
    18    10    11   ar
    19    11    12   ar
    20    12    13   ar
    21    13    14   ar
    22    14    15   ar
    23    14    16    1
    24    16    17   am
    25    17    18    2
    26    17    19    1
    27    19    20    1
    28     4     5    1
    29     5     6    1
    30    30    31   am
    31    31    32    2
    32    31    33    1
    33    33    34    1
    34    29    24   ar
    35     6     1    1
    36    34    27    1
    37    15    10   ar
    38    20    13    1
    39     7     8    1
    40    16    21    1
@<TRIPOS>MOLECULE
*****
 36 40 0 0 0
SMALL
GASTEIGER

@<TRIPOS>ATOM
      1 N         143.1644  140.4525  160.5441 N.3     1  UNL1       -0.2711
      2 C         143.9446  139.4614  161.3558 C.3     1  UNL1        0.0735
      3 C         143.2374  138.3272  162.0367 C.3     1  UNL1        0.0331
      4 C         141.7501  138.1842  161.9058 C.3     1  UNL1        0.0570
      5 C         140.9698  139.1753  161.0940 C.3     1  UNL1        0.0331
      6 C         141.6770  140.3094  160.4132 C.3     1  UNL1        0.0735
      7 N         141.0428  137.0500  162.5867 N.3     1  UNL1       -0.2934
      8 H         141.3891  136.1897  162.1620 H       1  UNL1        0.1236
      9 C         141.1594  136.8771  164.0721 C.3     1  UNL1        0.1152
     10 C         140.8839  138.0344  164.9858 C.ar    1  UNL1        0.0765
     11 C         139.4697  138.4018  165.3251 C.ar    1  UNL1        0.0193
     12 C         139.1941  139.5591  166.2388 C.ar    1  UNL1        0.0411
     13 C         140.3327  140.3489  166.8131 C.ar    1  UNL1        0.1708
     14 C         141.7469  139.9814  166.4737 C.ar    1  UNL1        0.1682
     15 N         142.0224  138.8242  165.5601 N.ar    1  UNL1       -0.2304
     16 N         142.8854  140.7713  167.0480 N.am    1  UNL1       -0.2639
     17 C         142.6098  141.9286  167.9617 C.2     1  UNL1        0.2718
     18 O         143.7484  142.7184  168.5360 O.2     1  UNL1       -0.2707
     19 C         141.1957  142.2960  168.3011 C.3     1  UNL1        0.2898
     20 O         140.0571  141.5061  167.7268 O.3     1  UNL1       -0.4628
     21 H         143.8136  140.5301  166.8253 H       1  UNL1        0.1565
     22 C         143.8716  141.5866  159.8632 C.3     1  UNL1        0.0944
     23 C         144.5150  142.6677  160.6801 C.3     1  UNL1        0.1188
     24 C         140.7313  145.0428  161.2209 C.ar    1  UNL1        0.1400
     25 C         140.2247  145.3425  162.6005 C.ar    1  UNL1        0.0368
     26 C         140.9792  144.8505  163.7999 C.ar    1  UNL1        0.0037
     27 C         142.2405  144.0588  163.6197 C.ar    1  UNL1        0.0353
     28 C         142.7471  143.7591  162.2400 C.ar    1  UNL1        0.0595
     29 C         141.9925  144.2512  161.0406 C.ar    1  UNL1        0.0517
     30 N         144.0084  142.9674  162.0597 N.am    1  UNL1       -0.2237
     31 C         144.7629  142.4754  163.2591 C.2     1  UNL1        0.4090
     32 O         146.0241  141.6837  163.0789 O.2     1  UNL1       -0.2258
     33 O         144.2562  142.7751  164.6388 O.3     1  UNL1       -0.4293
     34 C         142.9950  143.5668  164.8191 C.3     1  UNL1        0.2380
     35 C         140.2487  144.9439  158.6700 C.3     1  UNL1        0.2525
     36 O         139.9767  145.5349  160.0215 O.3     1  UNL1       -0.4714
@<TRIPOS>BOND
     1    35    36    1
     2    36    24    1
     3    24    25   ar
     4    25    26   ar
     5    26    27   ar
     6    27    28   ar
     7    28    29   ar
     8    28    30    1
     9    30    23    1
    10    23    22    1
    11    22     1    1
    12     1     2    1
    13     2     3    1
    14     3     4    1
    15     4     7    1
    16     7     9    1
    17     9    10    1
    18    10    11   ar
    19    11    12   ar
    20    12    13   ar
    21    13    14   ar
    22    14    15   ar
    23    14    16    1
    24    16    17   am
    25    17    18    2
    26    17    19    1
    27    19    20    1
    28     4     5    1
    29     5     6    1
    30    30    31   am
    31    31    32    2
    32    31    33    1
    33    33    34    1
    34    29    24   ar
    35     6     1    1
    36    34    27    1
    37    15    10   ar
    38    20    13    1
    39     7     8    1
    40    16    21    1
@<TRIPOS>MOLECULE
*****
 36 40 0 0 0
SMALL
GASTEIGER

@<TRIPOS>ATOM
      1 N         138.1232  141.0825  163.6733 N.3     1  UNL1       -0.2711
      2 C         138.1371  142.1749  164.7011 C.3     1  UNL1        0.0735
      3 C         138.1297  143.6113  164.2690 C.3     1  UNL1        0.0331
      4 C         138.1085  143.9552  162.8092 C.3     1  UNL1        0.0570
      5 C         138.0946  142.8628  161.7814 C.3     1  UNL1        0.0331
      6 C         138.1020  141.4264  162.2134 C.3     1  UNL1        0.0735
      7 N         138.1011  145.3917  162.3770 N.3     1  UNL1       -0.2934
      8 H         137.6960  145.9279  163.1443 H       1  UNL1        0.1236
      9 C         139.3866  146.0699  162.0061 C.3     1  UNL1        0.1152
     10 C         140.4829  145.2888  161.3444 C.ar    1  UNL1        0.0765
     11 C         140.5319  145.1846  159.8488 C.ar    1  UNL1        0.0193
     12 C         141.6282  144.4035  159.1869 C.ar    1  UNL1        0.0411
     13 C         142.6755  143.7267  160.0207 C.ar    1  UNL1        0.1708
     14 C         142.6265  143.8310  161.5163 C.ar    1  UNL1        0.1682
     15 N         141.5302  144.6120  162.1781 N.ar    1  UNL1       -0.2304
     16 N         143.6737  143.1542  162.3501 N.am    1  UNL1       -0.2639
     17 C         144.7701  142.3731  161.6882 C.2     1  UNL1        0.2718
     18 O         145.8174  141.6963  162.5219 O.2     1  UNL1       -0.2707
     19 C         144.8191  142.2688  160.1927 C.3     1  UNL1        0.2898
     20 O         143.7718  142.9456  159.3589 O.3     1  UNL1       -0.4628
     21 H         143.6416  143.2226  163.3316 H       1  UNL1        0.1565
     22 C         138.1306  139.6460  164.1054 C.3     1  UNL1        0.0944
     23 C         139.2605  139.1197  164.9399 C.3     1  UNL1        0.1188
     24 C         142.6721  141.7435  166.2538 C.ar    1  UNL1        0.1400
     25 C         142.7946  142.1500  167.6924 C.ar    1  UNL1        0.0368
     26 C         141.7800  141.6820  168.6931 C.ar    1  UNL1        0.0037
     27 C         140.6428  140.8074  168.2551 C.ar    1  UNL1        0.0353
     28 C         140.5202  140.4009  166.8165 C.ar    1  UNL1        0.0595
     29 C         141.5349  140.8689  165.8158 C.ar    1  UNL1        0.0517
     30 N         139.3830  139.5262  166.3785 N.am    1  UNL1       -0.2237
     31 C         138.3683  139.0582  167.3792 C.2     1  UNL1        0.4090
     32 O         137.2311  138.1836  166.9413 O.2     1  UNL1       -0.2258
     33 O         138.4909  139.4648  168.8179 O.3     1  UNL1       -0.4293
     34 C         139.6281  140.3394  169.2558 C.3     1  UNL1        0.2380
     35 C         144.5416  143.4066  165.5546 C.3     1  UNL1        0.2525
     36 O         143.6868  142.2115  165.2531 O.3     1  UNL1       -0.4714
@<TRIPOS>BOND
     1    35    36    1
     2    36    24    1
     3    24    25   ar
     4    25    26   ar
     5    26    27   ar
     6    27    28   ar
     7    28    29   ar
     8    28    30    1
     9    30    23    1
    10    23    22    1
    11    22     1    1
    12     1     2    1
    13     2     3    1
    14     3     4    1
    15     4     7    1
    16     7     9    1
    17     9    10    1
    18    10    11   ar
    19    11    12   ar
    20    12    13   ar
    21    13    14   ar
    22    14    15   ar
    23    14    16    1
    24    16    17   am
    25    17    18    2
    26    17    19    1
    27    19    20    1
    28     4     5    1
    29     5     6    1
    30    30    31   am
    31    31    32    2
    32    31    33    1
    33    33    34    1
    34    29    24   ar
    35     6     1    1
    36    34    27    1
    37    15    10   ar
    38    20    13    1
    39     7     8    1
    40    16    21    1
@<TRIPOS>MOLECULE
*****
 36 40 0 0 0
SMALL
GASTEIGER

@<TRIPOS>ATOM
      1 N         140.0523  143.9713  163.8416 N.3     1  UNL1       -0.2711
      2 C         141.1502  144.5418  162.9936 C.3     1  UNL1        0.0735
      3 C         142.5831  144.3527  163.3948 C.3     1  UNL1        0.0331
      4 C         142.9181  143.5931  164.6441 C.3     1  UNL1        0.0570
      5 C         141.8202  143.0227  165.4922 C.3     1  UNL1        0.0331
      6 C         140.3873  143.2117  165.0909 C.3     1  UNL1        0.0735
      7 N         144.3510  143.4040  165.0454 N.3     1  UNL1       -0.2934
      8 H         144.3475  143.1212  166.0254 H       1  UNL1        0.1236
      9 C         145.2110  142.4170  164.3130 C.3     1  UNL1        0.1152
     10 C         144.5877  141.2203  163.6579 C.ar    1  UNL1        0.0765
     11 C         144.0025  140.1247  164.4989 C.ar    1  UNL1        0.0193
     12 C         143.3792  138.9279  163.8437 C.ar    1  UNL1        0.0411
     13 C         143.3411  138.8267  162.3476 C.ar    1  UNL1        0.1708
     14 C         143.9264  139.9223  161.5067 C.ar    1  UNL1        0.1682
     15 N         144.5497  141.1191  162.1618 N.ar    1  UNL1       -0.2304
     16 N         143.8883  139.8211  160.0106 N.am    1  UNL1       -0.2639
     17 C         143.2650  138.6242  159.3554 C.2     1  UNL1        0.2718
     18 O         143.2270  138.5230  157.8593 O.2     1  UNL1       -0.2707
     19 C         142.6798  137.5287  160.1964 C.3     1  UNL1        0.2898
     20 O         142.7179  137.6299  161.6925 O.3     1  UNL1       -0.4628
     21 H         144.2725  140.5401  159.4586 H       1  UNL1        0.1565
     22 C         138.6194  144.1604  163.4403 C.3     1  UNL1        0.0944
     23 C         137.7771  142.9714  163.0841 C.3     1  UNL1        0.1188
     24 C         138.4176  139.1317  165.3415 C.ar    1  UNL1        0.1400
     25 C         139.0382  137.9519  164.6538 C.ar    1  UNL1        0.0368
     26 C         139.4452  138.0521  163.2135 C.ar    1  UNL1        0.0037
     27 C         139.2317  139.3320  162.4611 C.ar    1  UNL1        0.0353
     28 C         138.6112  140.5117  163.1488 C.ar    1  UNL1        0.0595
     29 C         138.2041  140.4116  164.5891 C.ar    1  UNL1        0.0517
     30 N         138.3977  141.7917  162.3964 N.am    1  UNL1       -0.2237
     31 C         138.8047  141.8918  160.9561 C.2     1  UNL1        0.4090
     32 O         138.5912  143.1717  160.2036 O.2     1  UNL1       -0.2258
     33 O         139.4253  140.7120  160.2683 O.3     1  UNL1       -0.4293
     34 C         139.6388  139.4321  161.0208 C.3     1  UNL1        0.2380
     35 C         137.2340  137.8410  167.2606 C.3     1  UNL1        0.2525
     36 O         138.0106  139.0315  166.7818 O.3     1  UNL1       -0.4714
@<TRIPOS>BOND
     1    35    36    1
     2    36    24    1
     3    24    25   ar
     4    25    26   ar
     5    26    27   ar
     6    27    28   ar
     7    28    29   ar
     8    28    30    1
     9    30    23    1
    10    23    22    1
    11    22     1    1
    12     1     2    1
    13     2     3    1
    14     3     4    1
    15     4     7    1
    16     7     9    1
    17     9    10    1
    18    10    11   ar
    19    11    12   ar
    20    12    13   ar
    21    13    14   ar
    22    14    15   ar
    23    14    16    1
    24    16    17   am
    25    17    18    2
    26    17    19    1
    27    19    20    1
    28     4     5    1
    29     5     6    1
    30    30    31   am
    31    31    32    2
    32    31    33    1
    33    33    34    1
    34    29    24   ar
    35     6     1    1
    36    34    27    1
    37    15    10   ar
    38    20    13    1
    39     7     8    1
    40    16    21    1
