@<TRIPOS>MOLECULE
*****
 28 31 0 0 0
SMALL
GASTEIGER

@<TRIPOS>ATOM
      1 C         140.4544  139.1810  164.8343 C.ar    1  UNL1        0.0681
      2 C         139.9695  140.0021  163.6765 C.ar    1  UNL1        0.0208
      3 C         140.1581  139.5056  162.2737 C.ar    1  UNL1        0.0384
      4 C         140.8317  138.1879  162.0288 C.ar    1  UNL1        0.1386
      5 C         141.3166  137.3668  163.1867 C.ar    1  UNL1        0.0384
      6 C         141.1279  137.8633  164.5894 C.ar    1  UNL1        0.0208
      7 C         138.0339  138.3580  166.4041 C.3     1  UNL1        0.0723
      8 C         139.0555  139.2661  167.0220 C.ar    1  UNL1        0.1268
      9 N         138.8668  139.7627  168.4248 N.ar    1  UNL1       -0.2318
     10 C         139.8883  140.6708  169.0427 C.ar    1  UNL1        0.0880
     11 C         139.6996  141.1674  170.4455 C.ar    1  UNL1        0.0194
     12 C         140.7211  142.0755  171.0634 C.ar    1  UNL1        0.0024
     13 C         141.9314  142.4870  170.2785 C.ar    1  UNL1        0.0116
     14 C         142.1201  141.9904  168.8758 C.ar    1  UNL1        0.0637
     15 CL        143.3303  142.4019  168.0909 Cl      1  UNL1       -0.0820
     16 C         141.0985  141.0823  168.2579 C.ar    1  UNL1        0.0847
     17 C         141.2872  140.5857  166.8551 C.ar    1  UNL1        0.2678
     18 O         142.4975  140.9972  166.0702 O.2     1  UNL1       -0.2665
     19 N         140.2657  139.6776  166.2372 N.ar    1  UNL1       -0.2626
     20 O         141.0203  137.6913  160.6260 O.3     1  UNL1       -0.4754
     21 C         142.0603  138.3150  159.7431 C.3     1  UNL1        0.2068
     22 C         143.4091  138.6600  160.3014 C.3     1  UNL1        0.0646
     23 C         143.7223  140.0759  160.6848 C.3     1  UNL1        0.0759
     24 N         144.3893  140.3678  161.9962 N.3     1  UNL1       -0.2726
     25 C         145.1024  141.6364  162.3597 C.3     1  UNL1        0.0721
     26 C         145.6142  141.4950  163.7626 C.3     1  UNL1        0.0188
     27 C         145.2174  140.1389  164.2662 C.3     1  UNL1        0.0188
     28 C         144.4604  139.4422  163.1745 C.3     1  UNL1        0.0721
@<TRIPOS>BOND
     1     7     8    1
     2     8     9   ar
     3     9    10   ar
     4    10    11   ar
     5    11    12   ar
     6    12    13   ar
     7    13    14   ar
     8    14    15    1
     9    14    16   ar
    10    16    17   ar
    11    17    18    2
    12    17    19   ar
    13    19     1    1
    14     1     2   ar
    15     2     3   ar
    16     3     4   ar
    17     4    20    1
    18    20    21    1
    19    21    22    1
    20    22    23    1
    21    23    24    1
    22    24    25    1
    23    25    26    1
    24    26    27    1
    25    27    28    1
    26     4     5   ar
    27     5     6   ar
    28    19     8   ar
    29     6     1   ar
    30    16    10   ar
    31    28    24    1
@<TRIPOS>MOLECULE
*****
 28 31 0 0 0
SMALL
GASTEIGER

@<TRIPOS>ATOM
      1 C         139.5288  139.3297  164.9658 C.ar    1  UNL1        0.0681
      2 C         140.1386  138.0473  164.4827 C.ar    1  UNL1        0.0208
      3 C         139.9219  137.6001  163.0674 C.ar    1  UNL1        0.0384
      4 C         139.0953  138.4354  162.1353 C.ar    1  UNL1        0.1386
      5 C         138.4855  139.7179  162.6184 C.ar    1  UNL1        0.0384
      6 C         138.7022  140.1650  164.0337 C.ar    1  UNL1        0.0208
      7 C         137.6122  138.4882  167.1149 C.3     1  UNL1        0.0723
      8 C         138.7873  139.3560  167.4557 C.ar    1  UNL1        0.1268
      9 N         139.0040  139.8031  168.8710 N.ar    1  UNL1       -0.2318
     10 C         140.1791  140.6710  169.2118 C.ar    1  UNL1        0.0880
     11 C         140.3958  141.1181  170.6271 C.ar    1  UNL1        0.0194
     12 C         141.5708  141.9859  170.9679 C.ar    1  UNL1        0.0024
     13 C         142.5291  142.4067  169.8934 C.ar    1  UNL1        0.0116
     14 C         142.3124  141.9596  168.4781 C.ar    1  UNL1        0.0637
     15 CL        143.2706  142.3804  167.4035 Cl      1  UNL1       -0.0820
     16 C         141.1373  141.0918  168.1373 C.ar    1  UNL1        0.0847
     17 C         140.9206  140.6447  166.7219 C.ar    1  UNL1        0.2678
     18 O         141.8789  141.0654  165.6474 O.2     1  UNL1       -0.2665
     19 N         139.7456  139.7768  166.3812 N.ar    1  UNL1       -0.2626
     20 O         138.8785  137.9883  160.7199 O.3     1  UNL1       -0.4754
     21 C         139.8185  138.4354  159.6398 C.3     1  UNL1        0.2068
     22 C         141.0209  139.2622  159.9870 C.3     1  UNL1        0.0646
     23 C         142.3206  138.5923  160.3216 C.3     1  UNL1        0.0759
     24 N         143.2025  139.1596  161.3942 N.3     1  UNL1       -0.2726
     25 C         143.4501  138.5540  162.7440 C.3     1  UNL1        0.0721
     26 C         144.3922  139.4522  163.4894 C.3     1  UNL1        0.0188
     27 C         144.7269  140.6130  162.6003 C.3     1  UNL1        0.0188
     28 C         143.9916  140.4322  161.3054 C.3     1  UNL1        0.0721
@<TRIPOS>BOND
     1     7     8    1
     2     8     9   ar
     3     9    10   ar
     4    10    11   ar
     5    11    12   ar
     6    12    13   ar
     7    13    14   ar
     8    14    15    1
     9    14    16   ar
    10    16    17   ar
    11    17    18    2
    12    17    19   ar
    13    19     1    1
    14     1     2   ar
    15     2     3   ar
    16     3     4   ar
    17     4    20    1
    18    20    21    1
    19    21    22    1
    20    22    23    1
    21    23    24    1
    22    24    25    1
    23    25    26    1
    24    26    27    1
    25    27    28    1
    26     4     5   ar
    27     5     6   ar
    28    19     8   ar
    29     6     1   ar
    30    16    10   ar
    31    28    24    1
@<TRIPOS>MOLECULE
*****
 28 31 0 0 0
SMALL
GASTEIGER

@<TRIPOS>ATOM
      1 C         139.1071  139.9077  164.9386 C.ar    1  UNL1        0.0681
      2 C         139.6403  138.7917  164.0899 C.ar    1  UNL1        0.0208
      3 C         139.1258  138.5993  162.6941 C.ar    1  UNL1        0.0384
      4 C         138.0781  139.5229  162.1471 C.ar    1  UNL1        0.1386
      5 C         137.5449  140.6389  162.9957 C.ar    1  UNL1        0.0384
      6 C         138.0594  140.8313  164.3915 C.ar    1  UNL1        0.0208
      7 C         137.6424  138.6930  167.2579 C.3     1  UNL1        0.0723
      8 C         138.8893  139.4928  167.4941 C.ar    1  UNL1        0.1268
      9 N         139.4038  139.6852  168.8899 N.ar    1  UNL1       -0.2318
     10 C         140.6507  140.4849  169.1261 C.ar    1  UNL1        0.0880
     11 C         141.1652  140.6773  170.5218 C.ar    1  UNL1        0.0194
     12 C         142.4120  141.4770  170.7580 C.ar    1  UNL1        0.0024
     13 C         143.1444  142.0843  169.5983 C.ar    1  UNL1        0.0116
     14 C         142.6299  141.8919  168.2025 C.ar    1  UNL1        0.0637
     15 CL        143.3622  142.4993  167.0429 Cl      1  UNL1       -0.0820
     16 C         141.3830  141.0922  167.9664 C.ar    1  UNL1        0.0847
     17 C         140.8685  140.8998  166.5706 C.ar    1  UNL1        0.2678
     18 O         141.6008  141.5072  165.4109 O.2     1  UNL1       -0.2665
     19 N         139.6216  140.1001  166.3344 N.ar    1  UNL1       -0.2626
     20 O         137.5635  139.3305  160.7512 O.3     1  UNL1       -0.4754
     21 C         137.8757  140.3441  159.6905 C.3     1  UNL1        0.2068
     22 C         138.9534  141.3618  159.9196 C.3     1  UNL1        0.0646
     23 C         138.5891  142.7867  160.2144 C.3     1  UNL1        0.0759
     24 N         138.9480  143.3941  161.5381 N.3     1  UNL1       -0.2726
     25 C         138.0287  144.1790  162.4264 C.3     1  UNL1        0.0721
     26 C         138.8018  144.5933  163.6432 C.3     1  UNL1        0.0188
     27 C         140.1989  144.0645  163.5071 C.3     1  UNL1        0.0188
     28 C         140.2893  143.3234  162.2060 C.3     1  UNL1        0.0721
@<TRIPOS>BOND
     1     7     8    1
     2     8     9   ar
     3     9    10   ar
     4    10    11   ar
     5    11    12   ar
     6    12    13   ar
     7    13    14   ar
     8    14    15    1
     9    14    16   ar
    10    16    17   ar
    11    17    18    2
    12    17    19   ar
    13    19     1    1
    14     1     2   ar
    15     2     3   ar
    16     3     4   ar
    17     4    20    1
    18    20    21    1
    19    21    22    1
    20    22    23    1
    21    23    24    1
    22    24    25    1
    23    25    26    1
    24    26    27    1
    25    27    28    1
    26     4     5   ar
    27     5     6   ar
    28    19     8   ar
    29     6     1   ar
    30    16    10   ar
    31    28    24    1
@<TRIPOS>MOLECULE
*****
 28 31 0 0 0
SMALL
GASTEIGER

@<TRIPOS>ATOM
      1 C         139.5096  141.5458  164.6463 C.ar    1  UNL1        0.0681
      2 C         140.1463  141.0083  163.3991 C.ar    1  UNL1        0.0208
      3 C         139.7030  141.5072  162.0558 C.ar    1  UNL1        0.0384
      4 C         138.6228  142.5435  161.9597 C.ar    1  UNL1        0.1386
      5 C         137.9860  143.0809  163.2070 C.ar    1  UNL1        0.0384
      6 C         138.4294  142.5821  164.5503 C.ar    1  UNL1        0.0208
      7 C         137.9265  139.4223  166.0552 C.3     1  UNL1        0.0723
      8 C         139.1615  139.9851  166.6941 C.ar    1  UNL1        0.1268
      9 N         139.6049  139.4862  168.0374 N.ar    1  UNL1       -0.2318
     10 C         140.8399  140.0491  168.6763 C.ar    1  UNL1        0.0880
     11 C         141.2832  139.5502  170.0196 C.ar    1  UNL1        0.0194
     12 C         142.5181  140.1130  170.6585 C.ar    1  UNL1        0.0024
     13 C         143.3097  141.1747  169.9540 C.ar    1  UNL1        0.0116
     14 C         142.8663  141.6736  168.6108 C.ar    1  UNL1        0.0637
     15 CL        143.6578  142.7354  167.9063 Cl      1  UNL1       -0.0820
     16 C         141.6314  141.1108  167.9719 C.ar    1  UNL1        0.0847
     17 C         141.1879  141.6097  166.6285 C.ar    1  UNL1        0.2678
     18 O         141.9794  142.6714  165.9241 O.2     1  UNL1       -0.2665
     19 N         139.9530  141.0469  165.9897 N.ar    1  UNL1       -0.2626
     20 O         138.1794  143.0424  160.6164 O.3     1  UNL1       -0.4754
     21 C         139.0690  142.8697  159.4211 C.3     1  UNL1        0.2068
     22 C         139.7980  144.0506  158.8519 C.3     1  UNL1        0.0646
     23 C         141.1598  144.4111  159.3673 C.3     1  UNL1        0.0759
     24 N         141.3736  144.6234  160.8366 N.3     1  UNL1       -0.2726
     25 C         142.4742  144.0264  161.6629 C.3     1  UNL1        0.0721
     26 C         142.3052  144.5040  163.0747 C.3     1  UNL1        0.0188
     27 C         141.1003  145.3963  163.1211 C.3     1  UNL1        0.0188
     28 C         140.5246  145.4701  161.7379 C.3     1  UNL1        0.0721
@<TRIPOS>BOND
     1     7     8    1
     2     8     9   ar
     3     9    10   ar
     4    10    11   ar
     5    11    12   ar
     6    12    13   ar
     7    13    14   ar
     8    14    15    1
     9    14    16   ar
    10    16    17   ar
    11    17    18    2
    12    17    19   ar
    13    19     1    1
    14     1     2   ar
    15     2     3   ar
    16     3     4   ar
    17     4    20    1
    18    20    21    1
    19    21    22    1
    20    22    23    1
    21    23    24    1
    22    24    25    1
    23    25    26    1
    24    26    27    1
    25    27    28    1
    26     4     5   ar
    27     5     6   ar
    28    19     8   ar
    29     6     1   ar
    30    16    10   ar
    31    28    24    1
@<TRIPOS>MOLECULE
*****
 28 31 0 0 0
SMALL
GASTEIGER

@<TRIPOS>ATOM
      1 C         143.0317  139.8233  164.7647 C.ar    1  UNL1        0.0681
      2 C         142.1707  139.0142  163.8406 C.ar    1  UNL1        0.0208
      3 C         142.5395  138.8855  162.3924 C.ar    1  UNL1        0.0384
      4 C         143.7692  139.5659  161.8683 C.ar    1  UNL1        0.1386
      5 C         144.6302  140.3751  162.7924 C.ar    1  UNL1        0.0384
      6 C         144.2614  140.5037  164.2407 C.ar    1  UNL1        0.0208
      7 C         144.0104  137.7959  166.7476 C.3     1  UNL1        0.0723
      8 C         143.1522  138.9382  167.2045 C.ar    1  UNL1        0.1268
      9 N         142.7834  139.0668  168.6527 N.ar    1  UNL1       -0.2318
     10 C         141.9253  140.2092  169.1096 C.ar    1  UNL1        0.0880
     11 C         141.5565  140.3378  170.5578 C.ar    1  UNL1        0.0194
     12 C         140.6984  141.4801  171.0146 C.ar    1  UNL1        0.0024
     13 C         140.2091  142.4938  170.0232 C.ar    1  UNL1        0.0116
     14 C         140.5778  142.3652  168.5749 C.ar    1  UNL1        0.0637
     15 CL        140.0885  143.3790  167.5835 Cl      1  UNL1       -0.0820
     16 C         141.4359  141.2229  168.1181 C.ar    1  UNL1        0.0847
     17 C         141.8048  141.0943  166.6698 C.ar    1  UNL1        0.2678
     18 O         141.3154  142.1080  165.6784 O.2     1  UNL1       -0.2665
     19 N         142.6629  139.9519  166.2130 N.ar    1  UNL1       -0.2626
     20 O         144.1381  139.4373  160.4200 O.3     1  UNL1       -0.4754
     21 C         143.6074  140.4220  159.4206 C.3     1  UNL1        0.2068
     22 C         142.9334  141.6772  159.8896 C.3     1  UNL1        0.0646
     23 C         143.7543  142.8813  160.2451 C.3     1  UNL1        0.0759
     24 N         143.4294  143.6735  161.4768 N.3     1  UNL1       -0.2726
     25 C         142.0803  144.2154  161.8462 C.3     1  UNL1        0.0721
     26 C         142.2136  144.9396  163.1530 C.3     1  UNL1        0.0188
     27 C         143.6451  144.8453  163.5913 C.3     1  UNL1        0.0188
     28 C         144.3965  144.0628  162.5553 C.3     1  UNL1        0.0721
@<TRIPOS>BOND
     1     7     8    1
     2     8     9   ar
     3     9    10   ar
     4    10    11   ar
     5    11    12   ar
     6    12    13   ar
     7    13    14   ar
     8    14    15    1
     9    14    16   ar
    10    16    17   ar
    11    17    18    2
    12    17    19   ar
    13    19     1    1
    14     1     2   ar
    15     2     3   ar
    16     3     4   ar
    17     4    20    1
    18    20    21    1
    19    21    22    1
    20    22    23    1
    21    23    24    1
    22    24    25    1
    23    25    26    1
    24    26    27    1
    25    27    28    1
    26     4     5   ar
    27     5     6   ar
    28    19     8   ar
    29     6     1   ar
    30    16    10   ar
    31    28    24    1
@<TRIPOS>MOLECULE
*****
 28 31 0 0 0
SMALL
GASTEIGER

@<TRIPOS>ATOM
      1 C         142.8557  139.2902  164.4127 C.ar    1  UNL1        0.0681
      2 C         142.0120  138.2163  163.7923 C.ar    1  UNL1        0.0208
      3 C         142.2819  137.7688  162.3863 C.ar    1  UNL1        0.0384
      4 C         143.3956  138.3954  161.6007 C.ar    1  UNL1        0.1386
      5 C         144.2392  139.4693  162.2210 C.ar    1  UNL1        0.0384
      6 C         143.9693  139.9167  163.6270 C.ar    1  UNL1        0.0208
      7 C         144.0077  137.7593  166.7212 C.3     1  UNL1        0.0723
      8 C         143.1617  138.9722  166.9730 C.ar    1  UNL1        0.1268
      9 N         142.8918  139.4195  168.3791 N.ar    1  UNL1       -0.2318
     10 C         142.0458  140.6324  168.6309 C.ar    1  UNL1        0.0880
     11 C         141.7758  141.0798  170.0369 C.ar    1  UNL1        0.0194
     12 C         140.9299  142.2926  170.2887 C.ar    1  UNL1        0.0024
     13 C         140.3539  143.0580  169.1344 C.ar    1  UNL1        0.0116
     14 C         140.6238  142.6107  167.7284 C.ar    1  UNL1        0.0637
     15 CL        140.0478  143.3761  166.5741 Cl      1  UNL1       -0.0820
     16 C         141.4698  141.3979  167.4766 C.ar    1  UNL1        0.0847
     17 C         141.7398  140.9504  166.0705 C.ar    1  UNL1        0.2678
     18 O         141.1638  141.7159  164.9163 O.2     1  UNL1       -0.2665
     19 N         142.5857  139.7376  165.8188 N.ar    1  UNL1       -0.2626
     20 O         143.6656  137.9479  160.1946 O.3     1  UNL1       -0.4754
     21 C         142.5774  138.0148  159.1643 C.3     1  UNL1        0.2068
     22 C         141.8300  139.2966  158.9449 C.3     1  UNL1        0.0646
     23 C         140.3361  139.3258  159.0768 C.3     1  UNL1        0.0759
     24 N         139.7026  139.3033  160.4363 N.3     1  UNL1       -0.2726
     25 C         139.7570  140.4052  161.4527 C.3     1  UNL1        0.0721
     26 C         138.9915  139.9580  162.6626 C.3     1  UNL1        0.0188
     27 C         138.4640  138.5797  162.3941 C.3     1  UNL1        0.0188
     28 C         138.9035  138.1751  161.0181 C.3     1  UNL1        0.0721
@<TRIPOS>BOND
     1     7     8    1
     2     8     9   ar
     3     9    10   ar
     4    10    11   ar
     5    11    12   ar
     6    12    13   ar
     7    13    14   ar
     8    14    15    1
     9    14    16   ar
    10    16    17   ar
    11    17    18    2
    12    17    19   ar
    13    19     1    1
    14     1     2   ar
    15     2     3   ar
    16     3     4   ar
    17     4    20    1
    18    20    21    1
    19    21    22    1
    20    22    23    1
    21    23    24    1
    22    24    25    1
    23    25    26    1
    24    26    27    1
    25    27    28    1
    26     4     5   ar
    27     5     6   ar
    28    19     8   ar
    29     6     1   ar
    30    16    10   ar
    31    28    24    1
@<TRIPOS>MOLECULE
*****
 28 31 0 0 0
SMALL
GASTEIGER

@<TRIPOS>ATOM
      1 C         142.9182  139.2704  164.5514 C.ar    1  UNL1        0.0681
      2 C         144.1606  139.7583  163.8671 C.ar    1  UNL1        0.0208
      3 C         144.4565  139.3351  162.4588 C.ar    1  UNL1        0.0384
      4 C         143.5100  138.4241  161.7349 C.ar    1  UNL1        0.1386
      5 C         142.2676  137.9362  162.4192 C.ar    1  UNL1        0.0384
      6 C         141.9717  138.3594  163.8275 C.ar    1  UNL1        0.0208
      7 C         144.0178  137.6928  166.8541 C.3     1  UNL1        0.0723
      8 C         143.1721  138.9048  167.1111 C.ar    1  UNL1        0.1268
      9 N         142.8763  139.3279  168.5195 N.ar    1  UNL1       -0.2318
     10 C         142.0306  140.5399  168.7765 C.ar    1  UNL1        0.0880
     11 C         141.7348  140.9631  170.1848 C.ar    1  UNL1        0.0194
     12 C         140.8892  142.1750  170.4418 C.ar    1  UNL1        0.0024
     13 C         140.3394  142.9638  169.2905 C.ar    1  UNL1        0.0116
     14 C         140.6352  142.5407  167.8822 C.ar    1  UNL1        0.0637
     15 CL        140.0854  143.3295  166.7309 Cl      1  UNL1       -0.0820
     16 C         141.4808  141.3287  167.6252 C.ar    1  UNL1        0.0847
     17 C         141.7767  140.9055  166.2168 C.ar    1  UNL1        0.2678
     18 O         141.2269  141.6943  165.0655 O.2     1  UNL1       -0.2665
     19 N         142.6223  139.6936  165.9598 N.ar    1  UNL1       -0.2626
     20 O         143.8059  138.0009  160.3265 O.3     1  UNL1       -0.4754
     21 C         142.7160  138.0101  159.2960 C.3     1  UNL1        0.2068
     22 C         142.3990  139.2727  158.5508 C.3     1  UNL1        0.0646
     23 C         141.6200  140.3645  159.2224 C.3     1  UNL1        0.0759
     24 N         142.3133  141.3214  160.1463 N.3     1  UNL1       -0.2726
     25 C         143.6488  141.9628  159.9112 C.3     1  UNL1        0.0721
     26 C         143.9539  142.8427  161.0871 C.3     1  UNL1        0.0188
     27 C         142.8070  142.7451  162.0490 C.3     1  UNL1        0.0188
     28 C         141.7931  141.8048  161.4675 C.3     1  UNL1        0.0721
@<TRIPOS>BOND
     1     7     8    1
     2     8     9   ar
     3     9    10   ar
     4    10    11   ar
     5    11    12   ar
     6    12    13   ar
     7    13    14   ar
     8    14    15    1
     9    14    16   ar
    10    16    17   ar
    11    17    18    2
    12    17    19   ar
    13    19     1    1
    14     1     2   ar
    15     2     3   ar
    16     3     4   ar
    17     4    20    1
    18    20    21    1
    19    21    22    1
    20    22    23    1
    21    23    24    1
    22    24    25    1
    23    25    26    1
    24    26    27    1
    25    27    28    1
    26     4     5   ar
    27     5     6   ar
    28    19     8   ar
    29     6     1   ar
    30    16    10   ar
    31    28    24    1
@<TRIPOS>MOLECULE
*****
 28 31 0 0 0
SMALL
GASTEIGER

@<TRIPOS>ATOM
      1 C         142.6984  139.2531  162.5202 C.ar    1  UNL1        0.0681
      2 C         142.9039  140.4594  161.6526 C.ar    1  UNL1        0.0208
      3 C         143.1664  140.2920  160.1853 C.ar    1  UNL1        0.0384
      4 C         143.2234  138.9183  159.5856 C.ar    1  UNL1        0.1386
      5 C         143.0179  137.7121  160.4531 C.ar    1  UNL1        0.0384
      6 C         142.7554  137.8795  161.9204 C.ar    1  UNL1        0.0208
      7 C         144.9939  139.4738  164.4390 C.3     1  UNL1        0.0723
      8 C         143.5836  139.5309  164.9470 C.ar    1  UNL1        0.1268
      9 N         143.3212  139.6984  166.4143 N.ar    1  UNL1       -0.2318
     10 C         141.9109  139.7555  166.9222 C.ar    1  UNL1        0.0880
     11 C         141.6484  139.9230  168.3895 C.ar    1  UNL1        0.0194
     12 C         140.2382  139.9801  168.8974 C.ar    1  UNL1        0.0024
     13 C         139.0905  139.8698  167.9380 C.ar    1  UNL1        0.0116
     14 C         139.3529  139.7023  166.4707 C.ar    1  UNL1        0.0637
     15 CL        138.2052  139.5920  165.5112 Cl      1  UNL1       -0.0820
     16 C         140.7631  139.6452  165.9628 C.ar    1  UNL1        0.0847
     17 C         141.0257  139.4777  164.4954 C.ar    1  UNL1        0.2678
     18 O         139.8779  139.3674  163.5360 O.2     1  UNL1       -0.2665
     19 N         142.4359  139.4206  163.9875 N.ar    1  UNL1       -0.2626
     20 O         143.4860  138.7509  158.1182 O.3     1  UNL1       -0.4754
     21 C         142.5303  137.9649  157.2702 C.3     1  UNL1        0.2068
     22 C         143.0147  136.7678  156.5072 C.3     1  UNL1        0.0646
     23 C         142.1077  135.5905  156.3040 C.3     1  UNL1        0.0759
     24 N         142.6276  134.1988  156.5103 N.3     1  UNL1       -0.2726
     25 C         143.7851  133.8101  157.3817 C.3     1  UNL1        0.0721
     26 C         143.9542  132.3224  157.2915 C.3     1  UNL1        0.0188
     27 C         142.9012  131.7915  156.3644 C.3     1  UNL1        0.0188
     28 C         142.0813  132.9512  155.8816 C.3     1  UNL1        0.0721
@<TRIPOS>BOND
     1     7     8    1
     2     8     9   ar
     3     9    10   ar
     4    10    11   ar
     5    11    12   ar
     6    12    13   ar
     7    13    14   ar
     8    14    15    1
     9    14    16   ar
    10    16    17   ar
    11    17    18    2
    12    17    19   ar
    13    19     1    1
    14     1     2   ar
    15     2     3   ar
    16     3     4   ar
    17     4    20    1
    18    20    21    1
    19    21    22    1
    20    22    23    1
    21    23    24    1
    22    24    25    1
    23    25    26    1
    24    26    27    1
    25    27    28    1
    26     4     5   ar
    27     5     6   ar
    28    19     8   ar
    29     6     1   ar
    30    16    10   ar
    31    28    24    1
@<TRIPOS>MOLECULE
*****
 28 31 0 0 0
SMALL
GASTEIGER

@<TRIPOS>ATOM
      1 C         142.4099  139.8701  164.9369 C.ar    1  UNL1        0.0681
      2 C         143.7547  140.2415  164.3859 C.ar    1  UNL1        0.0208
      3 C         144.2959  139.5270  163.1832 C.ar    1  UNL1        0.0384
      4 C         143.4923  138.4411  162.5315 C.ar    1  UNL1        0.1386
      5 C         142.1475  138.0696  163.0825 C.ar    1  UNL1        0.0384
      6 C         141.6063  138.7841  164.2852 C.ar    1  UNL1        0.0208
      7 C         140.6796  142.2957  164.5879 C.3     1  UNL1        0.0723
      8 C         141.0036  141.7975  165.9652 C.ar    1  UNL1        0.1268
      9 N         140.4624  142.5120  167.1679 N.ar    1  UNL1       -0.2318
     10 C         140.7864  142.0137  168.5452 C.ar    1  UNL1        0.0880
     11 C         140.2453  142.7283  169.7479 C.ar    1  UNL1        0.0194
     12 C         140.5693  142.2300  171.1250 C.ar    1  UNL1        0.0024
     13 C         141.4345  141.0172  171.2995 C.ar    1  UNL1        0.0116
     14 C         141.9757  140.3026  170.0968 C.ar    1  UNL1        0.0637
     15 CL        142.8408  139.0898  170.2713 Cl      1  UNL1       -0.0820
     16 C         141.6516  140.8009  168.7197 C.ar    1  UNL1        0.0847
     17 C         142.1928  140.0863  167.5169 C.ar    1  UNL1        0.2678
     18 O         143.0580  138.8735  167.6914 O.2     1  UNL1       -0.2665
     19 N         141.8688  140.5846  166.1397 N.ar    1  UNL1       -0.2626
     20 O         144.0335  137.7265  161.3287 O.3     1  UNL1       -0.4754
     21 C         143.1823  137.5697  160.1036 C.3     1  UNL1        0.2068
     22 C         142.7427  138.7810  159.3358 C.3     1  UNL1        0.0646
     23 C         143.6592  139.9616  159.2082 C.3     1  UNL1        0.0759
     24 N         143.4700  141.1571  160.0941 N.3     1  UNL1       -0.2726
     25 C         142.2141  141.5193  160.8300 C.3     1  UNL1        0.0721
     26 C         142.4714  142.7864  161.5904 C.3     1  UNL1        0.0188
     27 C         143.8864  143.2074  161.3246 C.3     1  UNL1        0.0188
     28 C         144.5036  142.2003  160.3998 C.3     1  UNL1        0.0721
@<TRIPOS>BOND
     1     7     8    1
     2     8     9   ar
     3     9    10   ar
     4    10    11   ar
     5    11    12   ar
     6    12    13   ar
     7    13    14   ar
     8    14    15    1
     9    14    16   ar
    10    16    17   ar
    11    17    18    2
    12    17    19   ar
    13    19     1    1
    14     1     2   ar
    15     2     3   ar
    16     3     4   ar
    17     4    20    1
    18    20    21    1
    19    21    22    1
    20    22    23    1
    21    23    24    1
    22    24    25    1
    23    25    26    1
    24    26    27    1
    25    27    28    1
    26     4     5   ar
    27     5     6   ar
    28    19     8   ar
    29     6     1   ar
    30    16    10   ar
    31    28    24    1
