@<TRIPOS>MOLECULE
*****
 28 30 0 0 0
SMALL
GASTEIGER

@<TRIPOS>ATOM
      1 C         138.8942  142.7949  164.8499 C.ar    1  UNL1        0.1578
      2 N         139.7071  143.4345  165.9362 N.ar    1  UNL1       -0.1539
      3 N         140.2176  142.3470  166.8346 N.ar    1  UNL1       -0.2465
      4 C         139.7201  141.0353  166.3034 C.ar    1  UNL1        0.1025
      5 C         138.9022  141.3121  165.0768 C.ar    1  UNL1        0.1051
      6 C         141.0750  142.5377  168.0505 C.3     1  UNL1        0.1488
      7 C         140.4568  142.9870  169.3411 C.3     1  UNL1        0.1674
      8 O         141.3142  143.1777  170.5570 O.3     1  UNL1       -0.3516
      9 C         142.7898  142.9192  170.4823 C.3     1  UNL1        0.1434
     10 C         143.4080  142.4699  169.1916 C.3     1  UNL1        0.0492
     11 C         142.5507  142.2792  167.9757 C.3     1  UNL1        0.1187
     12 C         143.1689  141.8299  166.6850 C.1     1  UNL1        0.0742
     13 N         143.7872  141.3806  165.3942 N.1     1  UNL1       -0.1958
     14 C         138.2133  140.2864  164.2265 C.2     1  UNL1        0.2470
     15 N         138.4571  138.8260  164.4676 N.am    1  UNL1       -0.3252
     16 O         137.2806  140.7208  163.1350 O.2     1  UNL1       -0.2702
     17 H         139.0692  138.5408  165.1839 H       1  UNL1        0.1453
     18 H         138.0049  138.1528  163.9094 H       1  UNL1        0.1453
     19 N         138.1958  143.5121  163.7328 N.pl3   1  UNL1       -0.2964
     20 H         137.2233  143.6598  163.7747 H       1  UNL1        0.1537
     21 C         140.5457  144.9885  160.1905 C.ar    1  UNL1        0.0685
     22 C         140.0651  143.5682  160.2325 C.ar    1  UNL1        0.0115
     23 C         139.2818  143.0760  161.4133 C.ar    1  UNL1        0.0153
     24 C         138.9791  144.0042  162.5521 C.ar    1  UNL1        0.0494
     25 C         139.4596  145.4246  162.5101 C.ar    1  UNL1        0.0153
     26 C         140.2429  145.9167  161.3293 C.ar    1  UNL1        0.0115
     27 N         142.1123  145.9729  157.8290 N.1     1  UNL1       -0.1908
     28 C         141.3290  145.4807  159.0097 C.1     1  UNL1        0.1004
@<TRIPOS>BOND
     1    27    28    3
     2    28    21    1
     3    21    22   ar
     4    22    23   ar
     5    23    24   ar
     6    24    19    1
     7    19     1    1
     8     1     2   ar
     9     2     3   ar
    10     6     3    1
    11     6     7    1
    12     7     8    1
    13     8     9    1
    14     9    10    1
    15    10    11    1
    16    11    12    1
    17    12    13    3
    18     3     4   ar
    19     4     5   ar
    20     5    14    1
    21    14    15   am
    22    14    16    2
    23    24    25   ar
    24    25    26   ar
    25    26    21   ar
    26     5     1   ar
    27    11     6    1
    28    19    20    1
    29    15    17    1
    30    15    18    1
@<TRIPOS>MOLECULE
*****
 28 30 0 0 0
SMALL
GASTEIGER

@<TRIPOS>ATOM
      1 C         138.2530  141.2650  164.5513 C.ar    1  UNL1        0.1578
      2 N         138.7492  140.3001  165.5871 N.ar    1  UNL1       -0.1539
      3 N         139.6097  141.0592  166.5533 N.ar    1  UNL1       -0.2465
      4 C         139.6454  142.4932  166.1145 C.ar    1  UNL1        0.1025
      5 C         138.8069  142.6204  164.8773 C.ar    1  UNL1        0.1051
      6 C         140.3114  140.4851  167.7483 C.3     1  UNL1        0.1488
      7 C         139.5569  140.2612  169.0251 C.3     1  UNL1        0.1674
      8 O         140.2585  139.6871  170.2201 O.3     1  UNL1       -0.3516
      9 C         141.7147  139.3369  170.1383 C.3     1  UNL1        0.1434
     10 C         142.4693  139.5609  168.8614 C.3     1  UNL1        0.0492
     11 C         141.7676  140.1350  167.6664 C.3     1  UNL1        0.1187
     12 C         142.5222  140.3589  166.3895 C.1     1  UNL1        0.0742
     13 N         143.2768  140.5829  165.1126 N.1     1  UNL1       -0.1958
     14 C         138.5648  143.8814  164.1020 C.2     1  UNL1        0.2470
     15 N         139.3663  145.1129  164.4038 N.am    1  UNL1       -0.3252
     16 O         137.5211  143.9111  163.0250 O.2     1  UNL1       -0.2702
     17 H         140.0513  145.0935  165.1106 H       1  UNL1        0.1453
     18 H         139.2074  145.9406  163.8949 H       1  UNL1        0.1453
     19 N         137.3598  140.9328  163.3930 N.pl3   1  UNL1       -0.2964
     20 H         136.3962  141.1284  163.4425 H       1  UNL1        0.1537
     21 C         139.0847  139.0421  159.6916 C.ar    1  UNL1        0.0685
     22 C         138.6886  140.4888  159.6798 C.ar    1  UNL1        0.0115
     23 C         138.1136  141.1191  160.9136 C.ar    1  UNL1        0.0153
     24 C         137.9348  140.3026  162.1592 C.ar    1  UNL1        0.0494
     25 C         138.3310  138.8559  162.1709 C.ar    1  UNL1        0.0153
     26 C         138.9059  138.2257  160.9372 C.ar    1  UNL1        0.0115
     27 N         140.2347  137.7816  157.2241 N.1     1  UNL1       -0.1908
     28 C         139.6597  138.4118  158.4578 C.1     1  UNL1        0.1004
@<TRIPOS>BOND
     1    27    28    3
     2    28    21    1
     3    21    22   ar
     4    22    23   ar
     5    23    24   ar
     6    24    19    1
     7    19     1    1
     8     1     2   ar
     9     2     3   ar
    10     6     3    1
    11     6     7    1
    12     7     8    1
    13     8     9    1
    14     9    10    1
    15    10    11    1
    16    11    12    1
    17    12    13    3
    18     3     4   ar
    19     4     5   ar
    20     5    14    1
    21    14    15   am
    22    14    16    2
    23    24    25   ar
    24    25    26   ar
    25    26    21   ar
    26     5     1   ar
    27    11     6    1
    28    19    20    1
    29    15    17    1
    30    15    18    1
@<TRIPOS>MOLECULE
*****
 28 30 0 0 0
SMALL
GASTEIGER

@<TRIPOS>ATOM
      1 C         138.6456  140.3551  165.8837 C.ar    1  UNL1        0.1578
      2 N         139.5398  141.4298  166.4273 N.ar    1  UNL1       -0.1539
      3 N         140.0187  140.9940  167.7805 N.ar    1  UNL1       -0.2465
      4 C         139.4204  139.6499  168.0731 C.ar    1  UNL1        0.1025
      5 C         138.5718  139.2551  166.9010 C.ar    1  UNL1        0.1051
      6 C         140.9349  141.7666  168.6824 C.3     1  UNL1        0.1488
      7 C         140.4590  143.0346  169.3269 C.3     1  UNL1        0.1674
      8 O         141.3752  143.8072  170.2289 O.3     1  UNL1       -0.3516
      9 C         142.7673  143.3118  170.4864 C.3     1  UNL1        0.1434
     10 C         143.2432  142.0436  169.8419 C.3     1  UNL1        0.0492
     11 C         142.3270  141.2710  168.9400 C.3     1  UNL1        0.1187
     12 C         142.8030  140.0029  168.2955 C.1     1  UNL1        0.0742
     13 N         143.2789  138.7348  167.6510 N.1     1  UNL1       -0.1958
     14 C         137.7872  137.9835  166.7690 C.2     1  UNL1        0.2470
     15 N         136.7618  137.6242  167.8033 N.am    1  UNL1       -0.3252
     16 O         138.0278  137.0712  165.6030 O.2     1  UNL1       -0.2702
     17 H         136.6038  138.2229  168.5686 H       1  UNL1        0.1453
     18 H         136.2468  136.7896  167.7167 H       1  UNL1        0.1453
     19 N         137.9477  140.3766  164.5562 N.pl3   1  UNL1       -0.2964
     20 H         137.1791  139.7831  164.3945 H       1  UNL1        0.1537
     21 C         139.3678  143.1537  161.3126 C.ar    1  UNL1        0.0685
     22 C         138.1716  143.5178  162.1411 C.ar    1  UNL1        0.0115
     23 C         137.6982  142.5921  163.2224 C.ar    1  UNL1        0.0153
     24 C         138.4211  141.3023  163.4750 C.ar    1  UNL1        0.0494
     25 C         139.6173  140.9382  162.6464 C.ar    1  UNL1        0.0153
     26 C         140.0906  141.8639  161.5652 C.ar    1  UNL1        0.0115
     27 N         140.3146  145.0051  159.1502 N.1     1  UNL1       -0.1908
     28 C         139.8412  144.0794  160.2314 C.1     1  UNL1        0.1004
@<TRIPOS>BOND
     1    27    28    3
     2    28    21    1
     3    21    22   ar
     4    22    23   ar
     5    23    24   ar
     6    24    19    1
     7    19     1    1
     8     1     2   ar
     9     2     3   ar
    10     6     3    1
    11     6     7    1
    12     7     8    1
    13     8     9    1
    14     9    10    1
    15    10    11    1
    16    11    12    1
    17    12    13    3
    18     3     4   ar
    19     4     5   ar
    20     5    14    1
    21    14    15   am
    22    14    16    2
    23    24    25   ar
    24    25    26   ar
    25    26    21   ar
    26     5     1   ar
    27    11     6    1
    28    19    20    1
    29    15    17    1
    30    15    18    1
@<TRIPOS>MOLECULE
*****
 28 30 0 0 0
SMALL
GASTEIGER

@<TRIPOS>ATOM
      1 C         140.7209  139.9157  164.0509 C.ar    1  UNL1        0.1578
      2 N         141.2210  141.2434  163.5637 N.ar    1  UNL1       -0.1539
      3 N         140.4217  141.6239  162.3527 N.ar    1  UNL1       -0.2465
      4 C         139.4276  140.5313  162.0915 C.ar    1  UNL1        0.1025
      5 C         139.6125  139.4757  163.1409 C.ar    1  UNL1        0.1051
      6 C         140.5873  142.8769  161.5449 C.3     1  UNL1        0.1488
      7 C         141.4353  142.8649  160.3077 C.3     1  UNL1        0.1674
      8 O         141.6009  144.1179  159.4999 O.3     1  UNL1       -0.3516
      9 C         140.9187  145.3828  159.9292 C.3     1  UNL1        0.1434
     10 C         140.0707  145.3947  161.1665 C.3     1  UNL1        0.0492
     11 C         139.9050  144.1418  161.9743 C.3     1  UNL1        0.1187
     12 C         139.0570  144.1537  163.2116 C.1     1  UNL1        0.0742
     13 N         138.2090  144.1657  164.4489 N.1     1  UNL1       -0.1958
     14 C         138.8271  138.2034  163.2597 C.2     1  UNL1        0.2470
     15 N         138.1342  137.6345  162.0570 N.am    1  UNL1       -0.3252
     16 O         138.7343  137.4997  164.5812 O.2     1  UNL1       -0.2702
     17 H         138.1951  138.0963  161.1896 H       1  UNL1        0.1453
     18 H         137.6187  136.7995  162.1350 H       1  UNL1        0.1453
     19 N         141.2384  139.1607  165.2392 N.pl3   1  UNL1       -0.2964
     20 H         141.6668  138.2829  165.1163 H       1  UNL1        0.1537
     21 C         140.8322  140.9080  169.3661 C.ar    1  UNL1        0.0685
     22 C         142.1811  140.8282  168.7150 C.ar    1  UNL1        0.0115
     23 C         142.3165  140.2458  167.3393 C.ar    1  UNL1        0.0153
     24 C         141.1030  139.7432  166.6148 C.ar    1  UNL1        0.0494
     25 C         139.7541  139.8230  167.2661 C.ar    1  UNL1        0.0153
     26 C         139.6187  140.4054  168.6417 C.ar    1  UNL1        0.0115
     27 N         140.5613  142.0729  172.1175 N.1     1  UNL1       -0.1908
     28 C         140.6967  141.4905  170.7419 C.1     1  UNL1        0.1004
@<TRIPOS>BOND
     1    27    28    3
     2    28    21    1
     3    21    22   ar
     4    22    23   ar
     5    23    24   ar
     6    24    19    1
     7    19     1    1
     8     1     2   ar
     9     2     3   ar
    10     6     3    1
    11     6     7    1
    12     7     8    1
    13     8     9    1
    14     9    10    1
    15    10    11    1
    16    11    12    1
    17    12    13    3
    18     3     4   ar
    19     4     5   ar
    20     5    14    1
    21    14    15   am
    22    14    16    2
    23    24    25   ar
    24    25    26   ar
    25    26    21   ar
    26     5     1   ar
    27    11     6    1
    28    19    20    1
    29    15    17    1
    30    15    18    1
@<TRIPOS>MOLECULE
*****
 28 30 0 0 0
SMALL
GASTEIGER

@<TRIPOS>ATOM
      1 C         140.5864  139.9682  163.9865 C.ar    1  UNL1        0.1578
      2 N         140.6369  141.4660  163.9228 N.ar    1  UNL1       -0.1539
      3 N         140.1551  141.8888  162.5666 N.ar    1  UNL1       -0.2465
      4 C         139.8068  140.6523  161.7921 C.ar    1  UNL1        0.1025
      5 C         140.0733  139.4653  162.6696 C.ar    1  UNL1        0.1051
      6 C         140.0415  143.3003  162.0718 C.3     1  UNL1        0.1488
      7 C         138.8408  144.1256  162.4281 C.3     1  UNL1        0.1674
      8 O         138.7272  145.5371  161.9333 O.3     1  UNL1       -0.3516
      9 C         139.8144  146.1233  161.0823 C.3     1  UNL1        0.1434
     10 C         141.0152  145.2979  160.7260 C.3     1  UNL1        0.0492
     11 C         141.1288  143.8865  161.2208 C.3     1  UNL1        0.1187
     12 C         142.3296  143.0611  160.8645 C.1     1  UNL1        0.0742
     13 N         143.5304  142.2358  160.5082 N.1     1  UNL1       -0.1958
     14 C         139.8637  138.0278  162.2960 C.2     1  UNL1        0.2470
     15 N         138.7381  137.6474  161.3803 N.am    1  UNL1       -0.3252
     16 O         140.7795  136.9707  162.8379 O.2     1  UNL1       -0.2702
     17 H         138.1370  138.3412  161.0245 H       1  UNL1        0.1453
     18 H         138.6005  136.7039  161.1350 H       1  UNL1        0.1453
     19 N         140.9798  139.1218  165.1607 N.pl3   1  UNL1       -0.2964
     20 H         141.2809  138.1950  165.0206 H       1  UNL1        0.1537
     21 C         140.7837  140.8191  169.3237 C.ar    1  UNL1        0.0685
     22 C         139.5200  140.4588  168.6004 C.ar    1  UNL1        0.0115
     23 C         139.5853  139.8930  167.2127 C.ar    1  UNL1        0.0153
     24 C         140.9144  139.6876  166.5484 C.ar    1  UNL1        0.0494
     25 C         142.1781  140.0479  167.2718 C.ar    1  UNL1        0.0153
     26 C         142.1127  140.6136  168.6594 C.ar    1  UNL1        0.0115
     27 N         140.6530  141.9507  172.0991 N.1     1  UNL1       -0.1908
     28 C         140.7183  141.3849  170.7115 C.1     1  UNL1        0.1004
@<TRIPOS>BOND
     1    27    28    3
     2    28    21    1
     3    21    22   ar
     4    22    23   ar
     5    23    24   ar
     6    24    19    1
     7    19     1    1
     8     1     2   ar
     9     2     3   ar
    10     6     3    1
    11     6     7    1
    12     7     8    1
    13     8     9    1
    14     9    10    1
    15    10    11    1
    16    11    12    1
    17    12    13    3
    18     3     4   ar
    19     4     5   ar
    20     5    14    1
    21    14    15   am
    22    14    16    2
    23    24    25   ar
    24    25    26   ar
    25    26    21   ar
    26     5     1   ar
    27    11     6    1
    28    19    20    1
    29    15    17    1
    30    15    18    1
@<TRIPOS>MOLECULE
*****
 28 30 0 0 0
SMALL
GASTEIGER

@<TRIPOS>ATOM
      1 C         138.9555  142.4002  164.8820 C.ar    1  UNL1        0.1578
      2 N         139.7534  142.2975  166.1480 N.ar    1  UNL1       -0.1539
      3 N         139.8866  140.8443  166.4955 N.ar    1  UNL1       -0.2465
      4 C         139.1709  140.0489  165.4441 C.ar    1  UNL1        0.1025
      5 C         138.5955  141.0105  164.4470 C.ar    1  UNL1        0.1051
      6 C         140.6085  140.2848  167.6853 C.3     1  UNL1        0.1488
      7 C         139.8829  140.1023  168.9853 C.3     1  UNL1        0.1674
      8 O         140.6049  139.5428  170.1751 O.3     1  UNL1       -0.3516
      9 C         142.0525  139.1658  170.0649 C.3     1  UNL1        0.1434
     10 C         142.7782  139.3484  168.7648 C.3     1  UNL1        0.0492
     11 C         142.0562  139.9079  167.5750 C.3     1  UNL1        0.1187
     12 C         142.7819  140.0904  166.2750 C.1     1  UNL1        0.0742
     13 N         143.5075  140.2729  164.9749 N.1     1  UNL1       -0.1958
     14 C         137.7998  140.6464  163.2287 C.2     1  UNL1        0.2470
     15 N         137.9392  139.2815  162.6221 N.am    1  UNL1       -0.3252
     16 O         136.8646  141.6470  162.6170 O.2     1  UNL1       -0.2702
     17 H         138.5529  138.6248  163.0236 H       1  UNL1        0.1453
     18 H         137.4169  139.0426  161.8225 H       1  UNL1        0.1453
     19 N         138.5830  143.6696  164.1751 N.pl3   1  UNL1       -0.2964
     20 H         137.8470  144.2264  164.5182 H       1  UNL1        0.1537
     21 C         140.8293  144.9331  160.4863 C.ar    1  UNL1        0.0685
     22 C         139.9331  145.9089  161.1896 C.ar    1  UNL1        0.0115
     23 C         139.1843  145.4877  162.4193 C.ar    1  UNL1        0.0153
     24 C         139.3317  144.0908  162.9455 C.ar    1  UNL1        0.0494
     25 C         140.2279  143.1150  162.2421 C.ar    1  UNL1        0.0153
     26 C         140.9767  143.5362  161.0125 C.ar    1  UNL1        0.0115
     27 N         142.3269  145.7754  158.0270 N.1     1  UNL1       -0.1908
     28 C         141.5781  145.3542  159.2566 C.1     1  UNL1        0.1004
@<TRIPOS>BOND
     1    27    28    3
     2    28    21    1
     3    21    22   ar
     4    22    23   ar
     5    23    24   ar
     6    24    19    1
     7    19     1    1
     8     1     2   ar
     9     2     3   ar
    10     6     3    1
    11     6     7    1
    12     7     8    1
    13     8     9    1
    14     9    10    1
    15    10    11    1
    16    11    12    1
    17    12    13    3
    18     3     4   ar
    19     4     5   ar
    20     5    14    1
    21    14    15   am
    22    14    16    2
    23    24    25   ar
    24    25    26   ar
    25    26    21   ar
    26     5     1   ar
    27    11     6    1
    28    19    20    1
    29    15    17    1
    30    15    18    1
@<TRIPOS>MOLECULE
*****
 28 30 0 0 0
SMALL
GASTEIGER

@<TRIPOS>ATOM
      1 C         141.3638  144.2715  163.8643 C.ar    1  UNL1        0.1578
      2 N         141.7093  143.4668  165.0822 N.ar    1  UNL1       -0.1539
      3 N         140.4291  143.0899  165.7673 N.ar    1  UNL1       -0.2465
      4 C         139.2924  143.6618  164.9728 C.ar    1  UNL1        0.1025
      5 C         139.8701  144.3920  163.7968 C.ar    1  UNL1        0.1051
      6 C         140.3071  142.2830  167.0258 C.3     1  UNL1        0.1488
      7 C         140.6867  142.8883  168.3446 C.3     1  UNL1        0.1674
      8 O         140.5647  142.0813  169.6031 O.3     1  UNL1       -0.3516
      9 C         140.0630  140.6690  169.5428 C.3     1  UNL1        0.1434
     10 C         139.6833  140.0637  168.2239 C.3     1  UNL1        0.0492
     11 C         139.8053  140.8707  166.9654 C.3     1  UNL1        0.1187
     12 C         139.4257  140.2653  165.6465 C.1     1  UNL1        0.0742
     13 N         139.0460  139.6600  164.3277 N.1     1  UNL1       -0.1958
     14 C         139.0909  145.1157  162.7389 C.2     1  UNL1        0.2470
     15 N         137.6789  144.7091  162.4372 N.am    1  UNL1       -0.3252
     16 O         139.7237  146.2460  161.9826 O.2     1  UNL1       -0.2702
     17 H         137.2636  143.9672  162.9336 H       1  UNL1        0.1453
     18 H         137.1675  145.1841  161.7429 H       1  UNL1        0.1453
     19 N         142.3404  144.8536  162.8859 N.pl3   1  UNL1       -0.2964
     20 H         142.6365  145.7875  162.9824 H       1  UNL1        0.1537
     21 C         143.9167  142.3308  159.5094 C.ar    1  UNL1        0.0685
     22 C         142.5809  143.0014  159.3842 C.ar    1  UNL1        0.0115
     23 C         142.0554  143.8424  160.5097 C.ar    1  UNL1        0.0153
     24 C         142.8658  144.0127  161.7604 C.ar    1  UNL1        0.0494
     25 C         144.2017  143.3420  161.8856 C.ar    1  UNL1        0.0153
     26 C         144.7271  142.5011  160.7601 C.ar    1  UNL1        0.0115
     27 N         144.9676  140.6489  157.2585 N.1     1  UNL1       -0.1908
     28 C         144.4422  141.4898  158.3839 C.1     1  UNL1        0.1004
@<TRIPOS>BOND
     1    27    28    3
     2    28    21    1
     3    21    22   ar
     4    22    23   ar
     5    23    24   ar
     6    24    19    1
     7    19     1    1
     8     1     2   ar
     9     2     3   ar
    10     6     3    1
    11     6     7    1
    12     7     8    1
    13     8     9    1
    14     9    10    1
    15    10    11    1
    16    11    12    1
    17    12    13    3
    18     3     4   ar
    19     4     5   ar
    20     5    14    1
    21    14    15   am
    22    14    16    2
    23    24    25   ar
    24    25    26   ar
    25    26    21   ar
    26     5     1   ar
    27    11     6    1
    28    19    20    1
    29    15    17    1
    30    15    18    1
@<TRIPOS>MOLECULE
*****
 28 30 0 0 0
SMALL
GASTEIGER

@<TRIPOS>ATOM
      1 C         138.7366  141.7555  164.7696 C.ar    1  UNL1        0.1578
      2 N         139.3523  141.4261  166.0972 N.ar    1  UNL1       -0.1539
      3 N         140.2106  142.5848  166.5105 N.ar    1  UNL1       -0.2465
      4 C         140.1254  143.6304  165.4383 C.ar    1  UNL1        0.1025
      5 C         139.2145  143.1179  164.3624 C.ar    1  UNL1        0.1051
      6 C         141.0131  142.6810  167.7741 C.3     1  UNL1        0.1488
      7 C         140.4115  143.3034  168.9991 C.3     1  UNL1        0.1674
      8 O         141.2141  143.3996  170.2626 O.3     1  UNL1       -0.3516
      9 C         142.6182  142.8735  170.3013 C.3     1  UNL1        0.1434
     10 C         143.2198  142.2511  169.0762 C.3     1  UNL1        0.0492
     11 C         142.4173  142.1549  167.8126 C.3     1  UNL1        0.1187
     12 C         143.0189  141.5325  166.5876 C.1     1  UNL1        0.0742
     13 N         143.6205  140.9101  165.3625 N.1     1  UNL1       -0.1958
     14 C         138.8460  143.8407  163.1008 C.2     1  UNL1        0.2470
     15 N         137.4157  144.2076  162.8370 N.am    1  UNL1       -0.3252
     16 O         139.9078  144.1967  162.1029 O.2     1  UNL1       -0.2702
     17 H         136.7187  143.9740  163.4919 H       1  UNL1        0.1453
     18 H         137.1738  144.6820  162.0090 H       1  UNL1        0.1453
     19 N         137.8065  140.8769  163.9867 N.pl3   1  UNL1       -0.2964
     20 H         136.8984  140.6987  164.3225 H       1  UNL1        0.1537
     21 C         139.1673  139.0560  160.1031 C.ar    1  UNL1        0.0685
     22 C         138.0862  140.0958  160.1058 C.ar    1  UNL1        0.0115
     23 C         137.6326  140.7028  161.4003 C.ar    1  UNL1        0.0153
     24 C         138.2601  140.2700  162.6922 C.ar    1  UNL1        0.0494
     25 C         139.3412  139.2301  162.6895 C.ar    1  UNL1        0.0153
     26 C         139.7948  138.6231  161.3949 C.ar    1  UNL1        0.0115
     27 N         140.0744  137.8420  157.5140 N.1     1  UNL1       -0.1908
     28 C         139.6209  138.4489  158.8085 C.1     1  UNL1        0.1004
@<TRIPOS>BOND
     1    27    28    3
     2    28    21    1
     3    21    22   ar
     4    22    23   ar
     5    23    24   ar
     6    24    19    1
     7    19     1    1
     8     1     2   ar
     9     2     3   ar
    10     6     3    1
    11     6     7    1
    12     7     8    1
    13     8     9    1
    14     9    10    1
    15    10    11    1
    16    11    12    1
    17    12    13    3
    18     3     4   ar
    19     4     5   ar
    20     5    14    1
    21    14    15   am
    22    14    16    2
    23    24    25   ar
    24    25    26   ar
    25    26    21   ar
    26     5     1   ar
    27    11     6    1
    28    19    20    1
    29    15    17    1
    30    15    18    1
@<TRIPOS>MOLECULE
*****
 28 30 0 0 0
SMALL
GASTEIGER

@<TRIPOS>ATOM
      1 C         143.6440  141.4440  165.0563 C.ar    1  UNL1        0.1578
      2 N         143.2113  140.6152  166.2293 N.ar    1  UNL1       -0.1539
      3 N         142.1749  141.3905  166.9876 N.ar    1  UNL1       -0.2465
      4 C         141.9671  142.6985  166.2832 C.ar    1  UNL1        0.1025
      5 C         142.8750  142.7316  165.0897 C.ar    1  UNL1        0.1051
      6 C         141.4701  140.9373  168.2317 C.3     1  UNL1        0.1488
      7 C         140.2003  140.1457  168.1283 C.3     1  UNL1        0.1674
      8 O         139.4955  139.6926  169.3724 O.3     1  UNL1       -0.3516
      9 C         140.0605  140.0310  170.7200 C.3     1  UNL1        0.1434
     10 C         141.3304  140.8227  170.8235 C.3     1  UNL1        0.0492
     11 C         142.0352  141.2758  169.5793 C.3     1  UNL1        0.1187
     12 C         143.3051  142.0675  169.6828 C.1     1  UNL1        0.0742
     13 N         144.5750  142.8591  169.7863 N.1     1  UNL1       -0.1958
     14 C         142.9933  143.8549  164.1027 C.2     1  UNL1        0.2470
     15 N         141.8476  144.8026  163.9042 N.am    1  UNL1       -0.3252
     16 O         144.2572  144.0307  163.3143 O.2     1  UNL1       -0.2702
     17 H         141.0180  144.6872  164.4216 H       1  UNL1        0.1453
     18 H         141.9252  145.5399  163.2564 H       1  UNL1        0.1453
     19 N         144.6661  141.0539  164.0302 N.pl3   1  UNL1       -0.2964
     20 H         145.6125  141.2901  164.1635 H       1  UNL1        0.1537
     21 C         143.4066  138.8040  160.3422 C.ar    1  UNL1        0.0685
     22 C         143.4525  138.1045  161.6683 C.ar    1  UNL1        0.0115
     23 C         143.8723  138.8545  162.8977 C.ar    1  UNL1        0.0153
     24 C         144.2463  140.3039  162.8009 C.ar    1  UNL1        0.0494
     25 C         144.2004  141.0033  161.4746 C.ar    1  UNL1        0.0153
     26 C         143.7806  140.2534  160.2453 C.ar    1  UNL1        0.0115
     27 N         142.5669  137.3041  157.8834 N.1     1  UNL1       -0.1908
     28 C         142.9868  138.0540  159.1128 C.1     1  UNL1        0.1004
@<TRIPOS>BOND
     1    27    28    3
     2    28    21    1
     3    21    22   ar
     4    22    23   ar
     5    23    24   ar
     6    24    19    1
     7    19     1    1
     8     1     2   ar
     9     2     3   ar
    10     6     3    1
    11     6     7    1
    12     7     8    1
    13     8     9    1
    14     9    10    1
    15    10    11    1
    16    11    12    1
    17    12    13    3
    18     3     4   ar
    19     4     5   ar
    20     5    14    1
    21    14    15   am
    22    14    16    2
    23    24    25   ar
    24    25    26   ar
    25    26    21   ar
    26     5     1   ar
    27    11     6    1
    28    19    20    1
    29    15    17    1
    30    15    18    1
