@<TRIPOS>MOLECULE
*****
 23 26 0 0 0
SMALL
GASTEIGER

@<TRIPOS>ATOM
      1 C         142.2099  140.1264  167.2498 C.ar    1  UNL1       -0.0207
      2 C         140.9541  139.7463  166.5229 C.ar    1  UNL1       -0.0027
      3 C         140.5417  140.5003  165.2935 C.ar    1  UNL1        0.0188
      4 C         141.3851  141.6344  164.7911 C.ar    1  UNL1        0.0813
      5 N         140.9726  142.3884  163.5617 N.ar    1  UNL1       -0.2433
      6 C         141.8160  143.5226  163.0592 C.ar    1  UNL1        0.1050
      7 C         143.0718  143.9027  163.7862 C.ar    1  UNL1        0.0212
      8 C         143.4843  143.1487  165.0156 C.ar    1  UNL1        0.0031
      9 C         142.6409  142.0146  165.5180 C.ar    1  UNL1        0.0174
     10 C         143.0533  141.2606  166.7473 C.ar    1  UNL1       -0.0027
     11 C         141.4036  144.2766  161.8299 C.ar    1  UNL1        0.1284
     12 N         142.1775  144.3638  160.5479 N.ar    1  UNL1       -0.2352
     13 C         141.3971  145.2169  159.5924 C.ar    1  UNL1        0.1065
     14 C         140.1408  145.6569  160.2838 C.ar    1  UNL1        0.0576
     15 S         140.1448  145.0758  161.6666 S.2     1  UNL1       -0.0644
     16 C         142.6224  139.3724  168.4792 C.3     1  UNL1        0.0437
     17 C         142.2908  139.9144  169.8380 C.3     1  UNL1        0.0768
     18 C         139.0883  140.5415  169.8549 C.3     1  UNL1        0.0173
     19 C         140.1860  141.5561  169.9795 C.3     1  UNL1        0.0576
     20 C         140.0045  143.0371  170.1336 C.3     1  UNL1        0.0174
     21 C         141.3644  143.6641  170.2211 C.3     1  UNL1        0.0187
     22 C         142.3864  142.5706  170.1210 C.3     1  UNL1        0.0721
     23 N         141.6580  141.2678  169.9716 N.3     1  UNL1       -0.2737
@<TRIPOS>BOND
     1    19    18    1
     2    19    20    1
     3    20    21    1
     4    21    22    1
     5    22    23    1
     6    23    17    1
     7    17    16    1
     8    16     1    1
     9     1     2   ar
    10     2     3   ar
    11     3     4   ar
    12     4     5   ar
    13     5     6   ar
    14     6    11    1
    15    11    12   ar
    16    12    13   ar
    17    13    14   ar
    18    14    15   ar
    19     6     7   ar
    20     7     8   ar
    21     8     9   ar
    22     9    10   ar
    23    23    19    1
    24    10     1   ar
    25     9     4   ar
    26    15    11   ar
@<TRIPOS>MOLECULE
*****
 23 26 0 0 0
SMALL
GASTEIGER

@<TRIPOS>ATOM
      1 C         138.5784  139.2858  165.7002 C.ar    1  UNL1       -0.0207
      2 C         138.8837  137.9709  165.0463 C.ar    1  UNL1       -0.0027
      3 C         138.9225  137.8684  163.5503 C.ar    1  UNL1        0.0188
      4 C         138.6559  139.0808  162.7083 C.ar    1  UNL1        0.0813
      5 N         138.6947  138.9783  161.2123 N.ar    1  UNL1       -0.2433
      6 C         138.4282  140.1907  160.3703 C.ar    1  UNL1        0.1050
      7 C         138.1228  141.5057  161.0243 C.ar    1  UNL1        0.0212
      8 C         138.0840  141.6082  162.5203 C.ar    1  UNL1        0.0031
      9 C         138.3506  140.3957  163.3623 C.ar    1  UNL1        0.0174
     10 C         138.3118  140.4982  164.8582 C.ar    1  UNL1       -0.0027
     11 C         138.4670  140.0882  158.8743 C.ar    1  UNL1        0.1284
     12 N         137.4160  140.5895  157.9287 N.ar    1  UNL1       -0.2352
     13 C         137.8630  140.2776  156.5312 C.ar    1  UNL1        0.1065
     14 C         139.1903  139.5835  156.6132 C.ar    1  UNL1        0.0576
     15 S         139.5635  139.4665  158.0613 S.2     1  UNL1       -0.0644
     16 C         138.5396  139.3883  167.1963 C.3     1  UNL1        0.0437
     17 C         139.7911  139.7076  167.9589 C.3     1  UNL1        0.0768
     18 C         140.9410  142.4829  166.6841 C.3     1  UNL1        0.0173
     19 C         140.4479  142.2955  168.0882 C.3     1  UNL1        0.0576
     20 C         140.3967  143.3509  169.1530 C.3     1  UNL1        0.0174
     21 C         139.8365  142.7274  170.3970 C.3     1  UNL1        0.0187
     22 C         139.5415  141.2867  170.1011 C.3     1  UNL1        0.0721
     23 N         139.9193  141.0199  168.6742 N.3     1  UNL1       -0.2737
@<TRIPOS>BOND
     1    19    18    1
     2    19    20    1
     3    20    21    1
     4    21    22    1
     5    22    23    1
     6    23    17    1
     7    17    16    1
     8    16     1    1
     9     1     2   ar
    10     2     3   ar
    11     3     4   ar
    12     4     5   ar
    13     5     6   ar
    14     6    11    1
    15    11    12   ar
    16    12    13   ar
    17    13    14   ar
    18    14    15   ar
    19     6     7   ar
    20     7     8   ar
    21     8     9   ar
    22     9    10   ar
    23    23    19    1
    24    10     1   ar
    25     9     4   ar
    26    15    11   ar
@<TRIPOS>MOLECULE
*****
 23 26 0 0 0
SMALL
GASTEIGER

@<TRIPOS>ATOM
      1 C         142.7366  138.4687  165.3755 C.ar    1  UNL1       -0.0207
      2 C         141.5543  137.6164  165.0213 C.ar    1  UNL1       -0.0027
      3 C         141.2299  137.3447  163.5823 C.ar    1  UNL1        0.0188
      4 C         142.0878  137.9252  162.4975 C.ar    1  UNL1        0.0813
      5 N         141.7634  137.6534  161.0584 N.ar    1  UNL1       -0.2433
      6 C         142.6213  138.2339  159.9735 C.ar    1  UNL1        0.1050
      7 C         143.8038  139.0863  160.3278 C.ar    1  UNL1        0.0212
      8 C         144.1282  139.3580  161.7668 C.ar    1  UNL1        0.0031
      9 C         143.2702  138.7775  162.8517 C.ar    1  UNL1        0.0174
     10 C         143.5946  139.0493  164.2907 C.ar    1  UNL1       -0.0027
     11 C         142.2969  137.9622  158.5345 C.ar    1  UNL1        0.1284
     12 N         143.1083  137.1250  157.5906 N.ar    1  UNL1       -0.2352
     13 C         142.4170  137.1253  156.2594 C.ar    1  UNL1        0.1065
     14 C         141.1784  137.9627  156.3806 C.ar    1  UNL1        0.0576
     15 S         141.1042  138.4799  157.7866 S.2     1  UNL1       -0.0644
     16 C         143.0611  138.7405  166.8146 C.3     1  UNL1        0.0437
     17 C         142.6524  140.0397  167.4432 C.3     1  UNL1        0.0768
     18 C         139.4944  140.2956  166.6616 C.3     1  UNL1        0.0173
     19 C         140.0537  140.1951  168.0498 C.3     1  UNL1        0.0576
     20 C         139.2597  140.1946  169.3224 C.3     1  UNL1        0.0174
     21 C         140.2206  140.0766  170.4682 C.3     1  UNL1        0.0187
     22 C         141.6085  140.0042  169.9037 C.3     1  UNL1        0.0721
     23 N         141.5053  140.0775  168.4090 N.3     1  UNL1       -0.2737
@<TRIPOS>BOND
     1    19    18    1
     2    19    20    1
     3    20    21    1
     4    21    22    1
     5    22    23    1
     6    23    17    1
     7    17    16    1
     8    16     1    1
     9     1     2   ar
    10     2     3   ar
    11     3     4   ar
    12     4     5   ar
    13     5     6   ar
    14     6    11    1
    15    11    12   ar
    16    12    13   ar
    17    13    14   ar
    18    14    15   ar
    19     6     7   ar
    20     7     8   ar
    21     8     9   ar
    22     9    10   ar
    23    23    19    1
    24    10     1   ar
    25     9     4   ar
    26    15    11   ar
@<TRIPOS>MOLECULE
*****
 23 26 0 0 0
SMALL
GASTEIGER

@<TRIPOS>ATOM
      1 C         139.3395  137.6493  164.5339 C.ar    1  UNL1       -0.0207
      2 C         140.8248  137.4660  164.6350 C.ar    1  UNL1       -0.0027
      3 C         141.6827  137.6065  163.4126 C.ar    1  UNL1        0.0188
      4 C         141.0554  137.9304  162.0892 C.ar    1  UNL1        0.0813
      5 N         141.9134  138.0709  160.8668 N.ar    1  UNL1       -0.2433
      6 C         141.2860  138.3947  159.5433 C.ar    1  UNL1        0.1050
      7 C         139.8006  138.5780  159.4423 C.ar    1  UNL1        0.0212
      8 C         138.9427  138.4375  160.6646 C.ar    1  UNL1        0.0031
      9 C         139.5701  138.1137  161.9881 C.ar    1  UNL1        0.0174
     10 C         138.7122  137.9732  163.2104 C.ar    1  UNL1       -0.0027
     11 C         142.1439  138.5353  158.3210 C.ar    1  UNL1        0.1284
     12 N         142.4020  137.4694  157.2976 N.ar    1  UNL1       -0.2352
     13 C         143.3120  138.0417  156.2515 C.ar    1  UNL1        0.1065
     14 C         143.6164  139.4613  156.6284 C.ar    1  UNL1        0.0576
     15 S         142.8945  139.7663  157.9074 S.2     1  UNL1       -0.0644
     16 C         138.4815  137.5088  165.7563 C.3     1  UNL1        0.0437
     17 C         138.0377  138.7301  166.5054 C.3     1  UNL1        0.0768
     18 C         138.2030  141.3046  164.5070 C.3     1  UNL1        0.0173
     19 C         139.0413  141.0834  165.7309 C.3     1  UNL1        0.0576
     20 C         140.1028  142.0067  166.2512 C.3     1  UNL1        0.0174
     21 C         140.6830  141.3939  167.4914 C.3     1  UNL1        0.0187
     22 C         139.9799  140.0919  167.7376 C.3     1  UNL1        0.0721
     23 N         138.9654  139.9001  166.6495 N.3     1  UNL1       -0.2737
@<TRIPOS>BOND
     1    19    18    1
     2    19    20    1
     3    20    21    1
     4    21    22    1
     5    22    23    1
     6    23    17    1
     7    17    16    1
     8    16     1    1
     9     1     2   ar
    10     2     3   ar
    11     3     4   ar
    12     4     5   ar
    13     5     6   ar
    14     6    11    1
    15    11    12   ar
    16    12    13   ar
    17    13    14   ar
    18    14    15   ar
    19     6     7   ar
    20     7     8   ar
    21     8     9   ar
    22     9    10   ar
    23    23    19    1
    24    10     1   ar
    25     9     4   ar
    26    15    11   ar
@<TRIPOS>MOLECULE
*****
 23 26 0 0 0
SMALL
GASTEIGER

@<TRIPOS>ATOM
      1 C         139.4982  140.4944  166.7436 C.ar    1  UNL1       -0.0207
      2 C         139.0033  139.7119  165.5635 C.ar    1  UNL1       -0.0027
      3 C         139.1381  140.2756  164.1800 C.ar    1  UNL1        0.0188
      4 C         139.7677  141.6217  163.9767 C.ar    1  UNL1        0.0813
      5 N         139.9025  142.1854  162.5931 N.ar    1  UNL1       -0.2433
      6 C         140.5322  143.5316  162.3897 C.ar    1  UNL1        0.1050
      7 C         141.0271  144.3140  163.5700 C.ar    1  UNL1        0.0212
      8 C         140.8924  143.7504  164.9534 C.ar    1  UNL1        0.0031
      9 C         140.2627  142.4042  165.1568 C.ar    1  UNL1        0.0174
     10 C         140.1279  141.8405  166.5403 C.ar    1  UNL1       -0.0027
     11 C         140.6669  144.0953  161.0063 C.ar    1  UNL1        0.1284
     12 N         139.8006  145.1588  160.3992 N.ar    1  UNL1       -0.2352
     13 C         140.2899  145.4152  159.0047 C.ar    1  UNL1        0.1065
     14 C         141.4587  144.5102  158.7498 C.ar    1  UNL1        0.0576
     15 S         141.6917  143.6944  159.9869 S.2     1  UNL1       -0.0644
     16 C         139.3635  139.9307  168.1272 C.3     1  UNL1        0.0437
     17 C         139.6207  140.8023  169.3205 C.3     1  UNL1        0.0768
     18 C         140.4379  143.9133  169.8716 C.3     1  UNL1        0.0173
     19 C         141.3797  142.7462  169.8430 C.3     1  UNL1        0.0576
     20 C         142.8624  142.8040  170.0627 C.3     1  UNL1        0.0174
     21 C         143.4032  141.4098  169.9452 C.3     1  UNL1        0.0187
     22 C         142.2546  140.4902  169.6528 C.3     1  UNL1        0.0721
     23 N         141.0041  141.3162  169.5897 N.3     1  UNL1       -0.2737
@<TRIPOS>BOND
     1    19    18    1
     2    19    20    1
     3    20    21    1
     4    21    22    1
     5    22    23    1
     6    23    17    1
     7    17    16    1
     8    16     1    1
     9     1     2   ar
    10     2     3   ar
    11     3     4   ar
    12     4     5   ar
    13     5     6   ar
    14     6    11    1
    15    11    12   ar
    16    12    13   ar
    17    13    14   ar
    18    14    15   ar
    19     6     7   ar
    20     7     8   ar
    21     8     9   ar
    22     9    10   ar
    23    23    19    1
    24    10     1   ar
    25     9     4   ar
    26    15    11   ar
@<TRIPOS>MOLECULE
*****
 23 26 0 0 0
SMALL
GASTEIGER

@<TRIPOS>ATOM
      1 C         139.3752  137.7712  163.9094 C.ar    1  UNL1       -0.0207
      2 C         138.4294  137.9835  162.7647 C.ar    1  UNL1       -0.0027
      3 C         138.9645  138.2056  161.3811 C.ar    1  UNL1        0.0188
      4 C         140.4453  138.2153  161.1422 C.ar    1  UNL1        0.0813
      5 N         140.9804  138.4374  159.7585 N.ar    1  UNL1       -0.2433
      6 C         142.4612  138.4471  159.5197 C.ar    1  UNL1        0.1050
      7 C         143.4070  138.2348  160.6645 C.ar    1  UNL1        0.0212
      8 C         142.8719  138.0128  162.0481 C.ar    1  UNL1        0.0031
      9 C         141.3911  138.0030  162.2869 C.ar    1  UNL1        0.0174
     10 C         140.8560  137.7809  163.6705 C.ar    1  UNL1       -0.0027
     11 C         142.9963  138.6692  158.1361 C.ar    1  UNL1        0.1284
     12 N         143.8993  139.7883  157.7090 N.ar    1  UNL1       -0.2352
     13 C         144.1834  139.6219  156.2456 C.ar    1  UNL1        0.1065
     14 C         143.4559  138.4000  155.7682 C.ar    1  UNL1        0.0576
     15 S         142.7223  137.8112  156.9366 S.2     1  UNL1       -0.0644
     16 C         138.8402  137.5491  165.2931 C.3     1  UNL1        0.0437
     17 C         138.2241  138.6877  166.0506 C.3     1  UNL1        0.0768
     18 C         138.0526  141.3446  164.1636 C.3     1  UNL1        0.0173
     19 C         138.9141  141.1817  165.3806 C.3     1  UNL1        0.0576
     20 C         139.8480  142.2115  165.9440 C.3     1  UNL1        0.0174
     21 C         140.5041  141.6267  167.1596 C.3     1  UNL1        0.0187
     22 C         139.9756  140.2354  167.3475 C.3     1  UNL1        0.0721
     23 N         138.9929  139.9605  166.2480 N.3     1  UNL1       -0.2737
@<TRIPOS>BOND
     1    19    18    1
     2    19    20    1
     3    20    21    1
     4    21    22    1
     5    22    23    1
     6    23    17    1
     7    17    16    1
     8    16     1    1
     9     1     2   ar
    10     2     3   ar
    11     3     4   ar
    12     4     5   ar
    13     5     6   ar
    14     6    11    1
    15    11    12   ar
    16    12    13   ar
    17    13    14   ar
    18    14    15   ar
    19     6     7   ar
    20     7     8   ar
    21     8     9   ar
    22     9    10   ar
    23    23    19    1
    24    10     1   ar
    25     9     4   ar
    26    15    11   ar
@<TRIPOS>MOLECULE
*****
 23 26 0 0 0
SMALL
GASTEIGER

@<TRIPOS>ATOM
      1 C         143.4969  143.0297  164.8788 C.ar    1  UNL1       -0.0207
      2 C         144.5867  142.8186  163.8699 C.ar    1  UNL1       -0.0027
      3 C         144.3636  143.1948  162.4351 C.ar    1  UNL1        0.0188
      4 C         143.0507  143.7820  162.0092 C.ar    1  UNL1        0.0813
      5 N         142.8276  144.1582  160.5743 N.ar    1  UNL1       -0.2433
      6 C         141.5147  144.7454  160.1483 C.ar    1  UNL1        0.1050
      7 C         140.4249  144.9564  161.1572 C.ar    1  UNL1        0.0212
      8 C         140.6480  144.5803  162.5920 C.ar    1  UNL1        0.0031
      9 C         141.9609  143.9930  163.0180 C.ar    1  UNL1        0.0174
     10 C         142.1840  143.6169  164.4528 C.ar    1  UNL1       -0.0027
     11 C         141.2916  145.1215  158.7135 C.ar    1  UNL1        0.1284
     12 N         142.2459  145.8846  157.8434 N.ar    1  UNL1       -0.2352
     13 C         141.6191  146.0354  156.4890 C.ar    1  UNL1        0.1065
     14 C         140.2773  145.3655  156.5221 C.ar    1  UNL1        0.0576
     15 S         140.0749  144.8007  157.8969 S.2     1  UNL1       -0.0644
     16 C         143.7200  142.6535  166.3136 C.3     1  UNL1        0.0437
     17 C         142.6951  141.8363  167.0428 C.3     1  UNL1        0.0768
     18 C         144.0379  142.4392  169.9553 C.3     1  UNL1        0.0173
     19 C         142.6079  142.6858  169.5758 C.3     1  UNL1        0.0576
     20 C         141.5440  143.2528  170.4683 C.3     1  UNL1        0.0174
     21 C         140.2692  143.3262  169.6812 C.3     1  UNL1        0.0187
     22 C         140.5453  142.8044  168.3021 C.3     1  UNL1        0.0721
     23 N         141.9907  142.4087  168.2371 N.3     1  UNL1       -0.2737
@<TRIPOS>BOND
     1    19    18    1
     2    19    20    1
     3    20    21    1
     4    21    22    1
     5    22    23    1
     6    23    17    1
     7    17    16    1
     8    16     1    1
     9     1     2   ar
    10     2     3   ar
    11     3     4   ar
    12     4     5   ar
    13     5     6   ar
    14     6    11    1
    15    11    12   ar
    16    12    13   ar
    17    13    14   ar
    18    14    15   ar
    19     6     7   ar
    20     7     8   ar
    21     8     9   ar
    22     9    10   ar
    23    23    19    1
    24    10     1   ar
    25     9     4   ar
    26    15    11   ar
@<TRIPOS>MOLECULE
*****
 23 26 0 0 0
SMALL
GASTEIGER

@<TRIPOS>ATOM
      1 C         143.0738  142.7405  165.5334 C.ar    1  UNL1       -0.0207
      2 C         144.3171  142.8505  164.7014 C.ar    1  UNL1       -0.0027
      3 C         144.2323  143.3451  163.2879 C.ar    1  UNL1        0.0188
      4 C         142.9042  143.7298  162.7063 C.ar    1  UNL1        0.0813
      5 N         142.8194  144.2244  161.2927 N.ar    1  UNL1       -0.2433
      6 C         141.4914  144.6090  160.7111 C.ar    1  UNL1        0.1050
      7 C         140.2480  144.4990  161.5431 C.ar    1  UNL1        0.0212
      8 C         140.3329  144.0044  162.9566 C.ar    1  UNL1        0.0031
      9 C         141.6609  143.6198  163.5382 C.ar    1  UNL1        0.0174
     10 C         141.7458  143.1252  164.9518 C.ar    1  UNL1       -0.0027
     11 C         141.4065  145.1036  159.2975 C.ar    1  UNL1        0.1284
     12 N         142.5509  145.2234  158.3352 N.ar    1  UNL1       -0.2352
     13 C         142.0141  145.7591  157.0410 C.ar    1  UNL1        0.1065
     14 C         140.5379  145.9704  157.2036 C.ar    1  UNL1        0.0576
     15 S         140.1625  145.5653  158.5982 S.2     1  UNL1       -0.0644
     16 C         143.1586  142.2459  166.9470 C.3     1  UNL1        0.0437
     17 C         142.8122  140.8216  167.2652 C.3     1  UNL1        0.0768
     18 C         140.6964  139.5821  165.1121 C.3     1  UNL1        0.0173
     19 C         140.4164  139.8711  166.5571 C.3     1  UNL1        0.0576
     20 C         139.1147  139.6410  167.2661 C.3     1  UNL1        0.0174
     21 C         139.2827  140.0686  168.6940 C.3     1  UNL1        0.0187
     22 C         140.6884  140.5629  168.8675 C.3     1  UNL1        0.0721
     23 N         141.3889  140.4408  167.5468 N.3     1  UNL1       -0.2737
@<TRIPOS>BOND
     1    19    18    1
     2    19    20    1
     3    20    21    1
     4    21    22    1
     5    22    23    1
     6    23    17    1
     7    17    16    1
     8    16     1    1
     9     1     2   ar
    10     2     3   ar
    11     3     4   ar
    12     4     5   ar
    13     5     6   ar
    14     6    11    1
    15    11    12   ar
    16    12    13   ar
    17    13    14   ar
    18    14    15   ar
    19     6     7   ar
    20     7     8   ar
    21     8     9   ar
    22     9    10   ar
    23    23    19    1
    24    10     1   ar
    25     9     4   ar
    26    15    11   ar
@<TRIPOS>MOLECULE
*****
 23 26 0 0 0
SMALL
GASTEIGER

@<TRIPOS>ATOM
      1 C         138.5638  139.0152  165.4917 C.ar    1  UNL1       -0.0207
      2 C         139.1254  137.7441  164.9272 C.ar    1  UNL1       -0.0027
      3 C         139.3028  137.5957  163.4451 C.ar    1  UNL1        0.0188
      4 C         138.9184  138.7184  162.5276 C.ar    1  UNL1        0.0813
      5 N         139.0958  138.5699  161.0455 N.ar    1  UNL1       -0.2433
      6 C         138.7115  139.6926  160.1280 C.ar    1  UNL1        0.1050
      7 C         138.1498  140.9638  160.6926 C.ar    1  UNL1        0.0212
      8 C         137.9725  141.1122  162.1746 C.ar    1  UNL1        0.0031
      9 C         138.3568  139.9895  163.0921 C.ar    1  UNL1        0.0174
     10 C         138.1795  140.1379  164.5742 C.ar    1  UNL1       -0.0027
     11 C         138.8889  139.5442  158.6460 C.ar    1  UNL1        0.1284
     12 N         138.0820  140.2364  157.5877 N.ar    1  UNL1       -0.2352
     13 C         138.5987  139.7976  156.2496 C.ar    1  UNL1        0.1065
     14 C         139.7249  138.8341  156.4809 C.ar    1  UNL1        0.0576
     15 S         139.9042  138.6775  157.9619 S.2     1  UNL1       -0.0644
     16 C         138.3864  139.1637  166.9738 C.3     1  UNL1        0.0437
     17 C         139.4056  139.9131  167.7798 C.3     1  UNL1        0.0768
     18 C         140.1154  142.8036  166.4417 C.3     1  UNL1        0.0173
     19 C         141.0418  141.6284  166.5446 C.3     1  UNL1        0.0576
     20 C         142.4571  141.5754  166.0505 C.3     1  UNL1        0.0174
     21 C         143.0056  140.2140  166.3601 C.3     1  UNL1        0.0187
     22 C         141.9292  139.4256  167.0457 C.3     1  UNL1        0.0721
     23 N         140.7155  140.2997  167.1596 N.3     1  UNL1       -0.2737
@<TRIPOS>BOND
     1    19    18    1
     2    19    20    1
     3    20    21    1
     4    21    22    1
     5    22    23    1
     6    23    17    1
     7    17    16    1
     8    16     1    1
     9     1     2   ar
    10     2     3   ar
    11     3     4   ar
    12     4     5   ar
    13     5     6   ar
    14     6    11    1
    15    11    12   ar
    16    12    13   ar
    17    13    14   ar
    18    14    15   ar
    19     6     7   ar
    20     7     8   ar
    21     8     9   ar
    22     9    10   ar
    23    23    19    1
    24    10     1   ar
    25     9     4   ar
    26    15    11   ar
