@<TRIPOS>MOLECULE
*****
 35 38 0 0 0
SMALL
GASTEIGER

@<TRIPOS>ATOM
      1 C         141.9691  139.6521  163.4904 C.3     1  UNL1        0.0401
      2 C         141.9862  140.2491  162.1144 C.3     1  UNL1        0.0765
      3 N         143.4145  140.3369  161.6649 N.3     1  UNL1       -0.2723
      4 C         144.2803  139.7941  162.7630 C.3     1  UNL1        0.0729
      5 C         143.3869  139.3709  163.8912 C.3     1  UNL1        0.0305
      6 C         138.3073  138.8462  165.9788 C.ar    1  UNL1        0.1387
      7 C         139.1179  137.7026  165.4449 C.ar    1  UNL1        0.0366
      8 C         140.3385  137.9712  164.6155 C.ar    1  UNL1       -0.0011
      9 C         140.7485  139.3835  164.3198 C.ar    1  UNL1       -0.0209
     10 C         139.9379  140.5271  164.8537 C.ar    1  UNL1       -0.0011
     11 C         138.7173  140.2584  165.6832 C.ar    1  UNL1        0.0366
     12 C         136.9587  137.2843  167.5572 C.3     1  UNL1        0.2525
     13 O         137.0868  138.5776  166.8082 O.3     1  UNL1       -0.4714
     14 C         143.8931  140.8733  160.3483 C.3     1  UNL1        0.0745
     15 C         144.2197  142.3304  160.2062 C.3     1  UNL1        0.0444
     16 C         144.0354  143.2573  161.3711 C.3     1  UNL1        0.0945
     17 O         145.4149  142.7452  161.6614 O.3     1  UNL1       -0.3865
     18 C         142.7197  143.4475  160.6761 C.3     1  UNL1        0.0591
     19 C         141.6989  144.3868  161.2467 C.3     1  UNL1        0.1446
     20 O         141.9937  145.1359  162.5124 O.3     1  UNL1       -0.3536
     21 C         143.3093  144.9458  163.2074 C.3     1  UNL1        0.1446
     22 C         144.3301  144.0064  162.6367 C.3     1  UNL1        0.0591
     23 H         145.6781  142.1160  160.9717 H       1  UNL1        0.2102
     24 C         143.8331  138.7716  165.1919 C.3     1  UNL1        0.0871
     25 C         143.3591  139.3568  166.4891 C.2     1  UNL1        0.2262
     26 O         143.3062  138.5037  167.7218 O.2     1  UNL1       -0.2748
     27 N         142.9380  140.7950  166.5537 N.am    1  UNL1       -0.2839
     28 H         142.9727  141.3549  165.7447 H       1  UNL1        0.1549
     29 C         142.4640  141.3801  167.8510 C.ar    1  UNL1        0.0511
     30 C         143.3841  142.2390  168.6670 C.ar    1  UNL1        0.0147
     31 C         142.9101  142.8241  169.9643 C.ar    1  UNL1        0.0021
     32 C         141.5160  142.5505  170.4456 C.ar    1  UNL1        0.0115
     33 C         140.5959  141.6916  169.6295 C.ar    1  UNL1        0.0589
     34 CL        139.2018  141.4179  170.1108 Cl      1  UNL1       -0.0822
     35 C         141.0700  141.1065  168.3323 C.ar    1  UNL1        0.0261
@<TRIPOS>BOND
     1    12    13    1
     2    13     6    1
     3     6     7   ar
     4     7     8   ar
     5     8     9   ar
     6     1     9    1
     7     1     2    1
     8     2     3    1
     9     3    14    1
    10    14    15    1
    11    15    16    1
    12    16    17    1
    13    16    18    1
    14    18    19    1
    15    19    20    1
    16    20    21    1
    17    21    22    1
    18     3     4    1
    19     4     5    1
    20     5    24    1
    21    24    25    1
    22    25    26    2
    23    25    27   am
    24    27    29    1
    25    29    30   ar
    26    30    31   ar
    27    31    32   ar
    28    32    33   ar
    29    33    34    1
    30    33    35   ar
    31     9    10   ar
    32    10    11   ar
    33    11     6   ar
    34     5     1    1
    35    35    29   ar
    36    22    16    1
    37    17    23    1
    38    27    28    1
@<TRIPOS>MOLECULE
*****
 35 38 0 0 0
SMALL
GASTEIGER

@<TRIPOS>ATOM
      1 C         142.0647  138.5347  158.5683 C.3     1  UNL1        0.0401
      2 C         142.6050  137.4326  157.7062 C.3     1  UNL1        0.0765
      3 N         143.3542  138.0593  156.5679 N.3     1  UNL1       -0.2723
      4 C         143.2771  139.5489  156.7265 C.3     1  UNL1        0.0729
      5 C         142.4801  139.8427  157.9628 C.3     1  UNL1        0.0305
      6 C         139.6261  138.0096  162.3136 C.ar    1  UNL1        0.1387
      7 C         138.9477  138.3387  161.0170 C.ar    1  UNL1        0.0366
      8 C         139.7606  138.5138  159.7685 C.ar    1  UNL1       -0.0011
      9 C         141.2519  138.3597  159.8168 C.ar    1  UNL1       -0.0209
     10 C         141.9302  138.0306  161.1135 C.ar    1  UNL1       -0.0011
     11 C         141.1174  137.8555  162.3619 C.ar    1  UNL1        0.0366
     12 C         139.4961  137.5642  164.8699 C.3     1  UNL1        0.2525
     13 O         138.8132  137.8345  163.5621 O.3     1  UNL1       -0.4714
     14 C         144.0572  137.3254  155.4646 C.3     1  UNL1        0.0745
     15 C         144.2755  135.8450  155.5689 C.3     1  UNL1        0.0444
     16 C         143.1529  134.8980  155.2639 C.3     1  UNL1        0.0945
     17 O         142.9464  135.9068  154.1733 O.3     1  UNL1       -0.3865
     18 C         143.7494  134.2181  156.4606 C.3     1  UNL1        0.0591
     19 C         143.1517  132.9416  156.9735 C.3     1  UNL1        0.1446
     20 O         141.9573  132.3450  156.2897 O.3     1  UNL1       -0.3536
     21 C         141.3608  133.0248  155.0931 C.3     1  UNL1        0.1446
     22 C         141.9586  134.3014  154.5802 C.3     1  UNL1        0.0591
     23 H         143.6190  136.6020  154.2442 H       1  UNL1        0.2102
     24 C         142.1556  141.2053  158.4995 C.3     1  UNL1        0.0871
     25 C         142.4891  141.5508  159.9205 C.2     1  UNL1        0.2262
     26 O         141.4001  141.6266  160.9493 O.2     1  UNL1       -0.2748
     27 N         143.9115  141.8205  160.3128 N.am    1  UNL1       -0.2839
     28 H         144.6263  141.7708  159.6376 H       1  UNL1        0.1549
     29 C         144.2449  142.1660  161.7339 C.ar    1  UNL1        0.0511
     30 C         144.9686  141.1750  162.5967 C.ar    1  UNL1        0.0147
     31 C         145.3020  141.5205  164.0178 C.ar    1  UNL1        0.0021
     32 C         144.9118  142.8569  164.5761 C.ar    1  UNL1        0.0115
     33 C         144.1882  143.8478  163.7133 C.ar    1  UNL1        0.0589
     34 CL        143.7980  145.1843  164.2717 Cl      1  UNL1       -0.0822
     35 C         143.8548  143.5023  162.2923 C.ar    1  UNL1        0.0261
@<TRIPOS>BOND
     1    12    13    1
     2    13     6    1
     3     6     7   ar
     4     7     8   ar
     5     8     9   ar
     6     1     9    1
     7     1     2    1
     8     2     3    1
     9     3    14    1
    10    14    15    1
    11    15    16    1
    12    16    17    1
    13    16    18    1
    14    18    19    1
    15    19    20    1
    16    20    21    1
    17    21    22    1
    18     3     4    1
    19     4     5    1
    20     5    24    1
    21    24    25    1
    22    25    26    2
    23    25    27   am
    24    27    29    1
    25    29    30   ar
    26    30    31   ar
    27    31    32   ar
    28    32    33   ar
    29    33    34    1
    30    33    35   ar
    31     9    10   ar
    32    10    11   ar
    33    11     6   ar
    34     5     1    1
    35    35    29   ar
    36    22    16    1
    37    17    23    1
    38    27    28    1
@<TRIPOS>MOLECULE
*****
 35 38 0 0 0
SMALL
GASTEIGER

@<TRIPOS>ATOM
      1 C         141.2569  138.3778  160.4619 C.3     1  UNL1        0.0401
      2 C         142.1239  138.0117  159.2939 C.3     1  UNL1        0.0765
      3 N         141.3074  138.1641  158.0448 N.3     1  UNL1       -0.2723
      4 C         139.9358  138.6243  158.4408 C.3     1  UNL1        0.0729
      5 C         139.9046  138.7564  159.9347 C.3     1  UNL1        0.0305
      6 C         142.4954  138.3459  164.7880 C.ar    1  UNL1        0.1387
      7 C         143.1481  139.2958  163.8280 C.ar    1  UNL1        0.0366
      8 C         142.7352  139.3065  162.3860 C.ar    1  UNL1       -0.0011
      9 C         141.6697  138.3672  161.9039 C.ar    1  UNL1       -0.0209
     10 C         141.0171  137.4172  162.8639 C.ar    1  UNL1       -0.0011
     11 C         141.4299  137.4066  164.3059 C.ar    1  UNL1        0.0366
     12 C         142.6844  139.5484  167.0832 C.3     1  UNL1        0.2525
     13 O         142.9083  138.3352  166.2300 O.3     1  UNL1       -0.4714
     14 C         141.7797  137.9022  156.6454 C.3     1  UNL1        0.0745
     15 C         142.7536  136.7933  156.3777 C.3     1  UNL1        0.0444
     16 C         142.2538  135.4343  155.9861 C.3     1  UNL1        0.0945
     17 O         141.5177  136.2798  154.9895 O.3     1  UNL1       -0.3865
     18 C         143.1635  135.0608  157.1188 C.3     1  UNL1        0.0591
     19 C         143.3178  133.6220  157.5137 C.3     1  UNL1        0.1446
     20 O         142.5623  132.5566  156.7760 O.3     1  UNL1       -0.3536
     21 C         141.6526  132.9301  155.6433 C.3     1  UNL1        0.1446
     22 C         141.4983  134.3689  155.2484 C.3     1  UNL1        0.0591
     23 H         141.7476  137.2124  155.1243 H       1  UNL1        0.2102
     24 C         138.7277  139.1908  160.7570 C.3     1  UNL1        0.0871
     25 C         138.7123  140.5538  161.3831 C.2     1  UNL1        0.2262
     26 O         138.2382  141.7371  160.5923 O.2     1  UNL1       -0.2748
     27 N         139.1709  140.7336  162.7999 N.am    1  UNL1       -0.2839
     28 H         139.4820  139.9570  163.3189 H       1  UNL1        0.1549
     29 C         139.1554  142.0966  163.4259 C.ar    1  UNL1        0.0511
     30 C         137.9145  142.5963  164.1044 C.ar    1  UNL1        0.0147
     31 C         137.8990  143.9593  164.7305 C.ar    1  UNL1        0.0021
     32 C         139.1244  144.8227  164.6781 C.ar    1  UNL1        0.0115
     33 C         140.3654  144.3230  163.9995 C.ar    1  UNL1        0.0589
     34 CL        141.5909  145.1864  163.9470 Cl      1  UNL1       -0.0822
     35 C         140.3808  142.9600  163.3735 C.ar    1  UNL1        0.0261
@<TRIPOS>BOND
     1    12    13    1
     2    13     6    1
     3     6     7   ar
     4     7     8   ar
     5     8     9   ar
     6     1     9    1
     7     1     2    1
     8     2     3    1
     9     3    14    1
    10    14    15    1
    11    15    16    1
    12    16    17    1
    13    16    18    1
    14    18    19    1
    15    19    20    1
    16    20    21    1
    17    21    22    1
    18     3     4    1
    19     4     5    1
    20     5    24    1
    21    24    25    1
    22    25    26    2
    23    25    27   am
    24    27    29    1
    25    29    30   ar
    26    30    31   ar
    27    31    32   ar
    28    32    33   ar
    29    33    34    1
    30    33    35   ar
    31     9    10   ar
    32    10    11   ar
    33    11     6   ar
    34     5     1    1
    35    35    29   ar
    36    22    16    1
    37    17    23    1
    38    27    28    1
@<TRIPOS>MOLECULE
*****
 35 38 0 0 0
SMALL
GASTEIGER

@<TRIPOS>ATOM
      1 C         142.8230  143.2050  160.0634 C.3     1  UNL1        0.0401
      2 C         141.5900  144.0317  159.8482 C.3     1  UNL1        0.0765
      3 N         141.3215  144.8004  161.1080 N.3     1  UNL1       -0.2723
      4 C         142.3886  144.4487  162.1019 C.3     1  UNL1        0.0729
      5 C         143.3165  143.4628  161.4562 C.3     1  UNL1        0.0305
      6 C         144.7099  140.4377  157.0582 C.ar    1  UNL1        0.1387
      7 C         143.5243  139.9822  157.8563 C.ar    1  UNL1        0.0366
      8 C         142.8954  140.9047  158.8580 C.ar    1  UNL1       -0.0011
      9 C         143.4519  142.2826  159.0617 C.ar    1  UNL1       -0.0209
     10 C         144.6375  142.7380  158.2636 C.ar    1  UNL1       -0.0011
     11 C         145.2665  141.8156  157.2619 C.ar    1  UNL1        0.0366
     12 C         144.5935  139.1413  154.8097 C.3     1  UNL1        0.2525
     13 O         145.3389  139.5152  156.0565 O.3     1  UNL1       -0.4714
     14 C         140.1854  145.7533  161.3343 C.3     1  UNL1        0.0745
     15 C         139.2060  145.5030  162.4424 C.3     1  UNL1        0.0444
     16 C         138.9427  144.1017  162.9084 C.3     1  UNL1        0.0945
     17 O         138.4934  143.9905  161.4817 O.3     1  UNL1       -0.3865
     18 C         139.4835  144.6996  164.1734 C.3     1  UNL1        0.0591
     19 C         139.6050  143.8577  165.4088 C.3     1  UNL1        0.1446
     20 O         139.1857  142.4178  165.3793 O.3     1  UNL1       -0.3536
     21 C         138.6449  141.8198  164.1144 C.3     1  UNL1        0.1446
     22 C         138.5235  142.6619  162.8789 C.3     1  UNL1        0.0591
     23 H         138.6079  144.8460  161.0390 H       1  UNL1        0.2102
     24 C         144.5258  142.8433  162.0919 C.3     1  UNL1        0.0871
     25 C         144.4214  142.2185  163.4515 C.2     1  UNL1        0.2262
     26 O         145.6649  141.8909  164.2238 O.2     1  UNL1       -0.2748
     27 N         143.0736  141.9212  164.0389 N.am    1  UNL1       -0.2839
     28 H         142.2574  142.1362  163.5320 H       1  UNL1        0.1549
     29 C         142.9693  141.2964  165.3985 C.ar    1  UNL1        0.0511
     30 C         142.9802  139.8032  165.5406 C.ar    1  UNL1        0.0147
     31 C         142.8759  139.1783  166.9002 C.ar    1  UNL1        0.0021
     32 C         142.7607  140.0466  168.1179 C.ar    1  UNL1        0.0115
     33 C         142.7498  141.5398  167.9759 C.ar    1  UNL1        0.0589
     34 CL        142.6347  142.4083  169.1936 Cl      1  UNL1       -0.0822
     35 C         142.8541  142.1647  166.6162 C.ar    1  UNL1        0.0261
@<TRIPOS>BOND
     1    12    13    1
     2    13     6    1
     3     6     7   ar
     4     7     8   ar
     5     8     9   ar
     6     1     9    1
     7     1     2    1
     8     2     3    1
     9     3    14    1
    10    14    15    1
    11    15    16    1
    12    16    17    1
    13    16    18    1
    14    18    19    1
    15    19    20    1
    16    20    21    1
    17    21    22    1
    18     3     4    1
    19     4     5    1
    20     5    24    1
    21    24    25    1
    22    25    26    2
    23    25    27   am
    24    27    29    1
    25    29    30   ar
    26    30    31   ar
    27    31    32   ar
    28    32    33   ar
    29    33    34    1
    30    33    35   ar
    31     9    10   ar
    32    10    11   ar
    33    11     6   ar
    34     5     1    1
    35    35    29   ar
    36    22    16    1
    37    17    23    1
    38    27    28    1
@<TRIPOS>MOLECULE
*****
 35 38 0 0 0
SMALL
GASTEIGER

@<TRIPOS>ATOM
      1 C         142.1991  139.5886  162.6697 C.3     1  UNL1        0.0401
      2 C         142.0417  140.0076  161.2380 C.3     1  UNL1        0.0765
      3 N         143.3617  140.5380  160.7623 N.3     1  UNL1       -0.2723
      4 C         144.3350  140.4468  161.9001 C.3     1  UNL1        0.0729
      5 C         143.6165  139.8601  163.0788 C.3     1  UNL1        0.0305
      6 C         138.9840  137.8268  165.2791 C.ar    1  UNL1        0.1387
      7 C         138.9969  139.2998  164.9961 C.ar    1  UNL1        0.0366
      8 C         140.0686  139.8870  164.1263 C.ar    1  UNL1       -0.0011
      9 C         141.1274  139.0014  163.5395 C.ar    1  UNL1       -0.0209
     10 C         141.1145  137.5284  163.8225 C.ar    1  UNL1       -0.0011
     11 C         140.0428  136.9411  164.6923 C.ar    1  UNL1        0.0366
     12 C         137.3049  138.0599  167.2479 C.3     1  UNL1        0.2525
     13 O         137.9123  137.2395  166.1488 O.3     1  UNL1       -0.4714
     14 C         143.6566  141.0666  159.3899 C.3     1  UNL1        0.0745
     15 C         143.4710  142.5250  159.0922 C.3     1  UNL1        0.0444
     16 C         142.4648  143.3259  159.8641 C.3     1  UNL1        0.0945
     17 O         143.6786  143.5391  160.7191 O.3     1  UNL1       -0.3865
     18 C         141.6003  142.8346  158.7410 C.3     1  UNL1        0.0591
     19 C         140.1513  143.2181  158.6867 C.3     1  UNL1        0.1446
     20 O         139.5665  144.0932  159.7556 O.3     1  UNL1       -0.3536
     21 C         140.4309  144.5845  160.8788 C.3     1  UNL1        0.1446
     22 C         141.8800  144.2009  160.9330 C.3     1  UNL1        0.0591
     23 H         144.4327  143.0663  160.3335 H       1  UNL1        0.2102
     24 C         144.2110  139.5920  164.4297 C.3     1  UNL1        0.0871
     25 C         143.4956  140.0457  165.6674 C.2     1  UNL1        0.2262
     26 O         143.1117  139.0483  166.7201 O.2     1  UNL1       -0.2748
     27 N         143.1640  141.4968  165.8528 N.am    1  UNL1       -0.2839
     28 H         143.4159  142.1515  165.1620 H       1  UNL1        0.1549
     29 C         142.4485  141.9504  167.0907 C.ar    1  UNL1        0.0511
     30 C         140.9494  141.9929  167.1175 C.ar    1  UNL1        0.0147
     31 C         140.2339  142.4466  168.3554 C.ar    1  UNL1        0.0021
     32 C         141.0176  142.8578  169.5665 C.ar    1  UNL1        0.0115
     33 C         142.5167  142.8153  169.5397 C.ar    1  UNL1        0.0589
     34 CL        143.3005  143.2264  170.7508 Cl      1  UNL1       -0.0822
     35 C         143.2322  142.3616  168.3018 C.ar    1  UNL1        0.0261
@<TRIPOS>BOND
     1    12    13    1
     2    13     6    1
     3     6     7   ar
     4     7     8   ar
     5     8     9   ar
     6     1     9    1
     7     1     2    1
     8     2     3    1
     9     3    14    1
    10    14    15    1
    11    15    16    1
    12    16    17    1
    13    16    18    1
    14    18    19    1
    15    19    20    1
    16    20    21    1
    17    21    22    1
    18     3     4    1
    19     4     5    1
    20     5    24    1
    21    24    25    1
    22    25    26    2
    23    25    27   am
    24    27    29    1
    25    29    30   ar
    26    30    31   ar
    27    31    32   ar
    28    32    33   ar
    29    33    34    1
    30    33    35   ar
    31     9    10   ar
    32    10    11   ar
    33    11     6   ar
    34     5     1    1
    35    35    29   ar
    36    22    16    1
    37    17    23    1
    38    27    28    1
@<TRIPOS>MOLECULE
*****
 35 38 0 0 0
SMALL
GASTEIGER

@<TRIPOS>ATOM
      1 C         142.3856  139.3696  165.5809 C.3     1  UNL1        0.0401
      2 C         143.1431  138.9019  166.7882 C.3     1  UNL1        0.0765
      3 N         142.3124  139.2004  168.0010 N.3     1  UNL1       -0.2723
      4 C         141.0415  139.8526  167.5432 C.3     1  UNL1        0.0729
      5 C         141.0867  139.9571  166.0476 C.3     1  UNL1        0.0305
      6 C         143.7671  139.0638  161.3091 C.ar    1  UNL1        0.1387
      7 C         142.7750  138.0768  161.8490 C.ar    1  UNL1        0.0366
      8 C         142.3145  138.1787  163.2729 C.ar    1  UNL1       -0.0011
      9 C         142.8461  139.2677  164.1570 C.ar    1  UNL1       -0.0209
     10 C         143.8382  140.2546  163.6171 C.ar    1  UNL1       -0.0011
     11 C         144.2987  140.1527  162.1932 C.ar    1  UNL1        0.0366
     12 C         143.8149  140.0027  158.8871 C.3     1  UNL1        0.2525
     13 O         144.2276  138.9618  159.8852 O.3     1  UNL1       -0.4714
     14 C         142.6869  138.8995  169.4220 C.3     1  UNL1        0.0745
     15 C         142.7275  140.0035  170.4366 C.3     1  UNL1        0.0444
     16 C         141.5651  140.9419  170.5709 C.3     1  UNL1        0.0945
     17 O         140.8769  139.6354  170.8340 O.3     1  UNL1       -0.3865
     18 C         142.6571  141.9225  170.2611 C.3     1  UNL1        0.0591
     19 C         142.3477  143.3878  170.1769 C.3     1  UNL1        0.1446
     20 O         140.9462  143.8726  170.4025 O.3     1  UNL1       -0.3536
     21 C         139.8541  142.8920  170.7123 C.3     1  UNL1        0.1446
     22 C         140.1637  141.4267  170.7965 C.3     1  UNL1        0.0591
     23 H         141.5222  138.9133  170.7794 H       1  UNL1        0.2102
     24 C         140.0203  140.5459  165.1723 C.3     1  UNL1        0.0871
     25 C         140.3100  141.7726  164.3592 C.2     1  UNL1        0.2262
     26 O         141.4547  142.6671  164.7329 O.2     1  UNL1       -0.2748
     27 N         139.4549  142.1050  163.1724 N.am    1  UNL1       -0.2839
     28 H         138.7036  141.5180  162.9271 H       1  UNL1        0.1549
     29 C         139.7446  143.3318  162.3594 C.ar    1  UNL1        0.0511
     30 C         139.2416  144.6695  162.8149 C.ar    1  UNL1        0.0147
     31 C         139.5313  145.8963  162.0018 C.ar    1  UNL1        0.0021
     32 C         140.3240  145.7854  160.7333 C.ar    1  UNL1        0.0115
     33 C         140.8270  144.4477  160.2778 C.ar    1  UNL1        0.0589
     34 CL        141.6198  144.3368  159.0091 Cl      1  UNL1       -0.0822
     35 C         140.5373  143.2209  161.0908 C.ar    1  UNL1        0.0261
@<TRIPOS>BOND
     1    12    13    1
     2    13     6    1
     3     6     7   ar
     4     7     8   ar
     5     8     9   ar
     6     1     9    1
     7     1     2    1
     8     2     3    1
     9     3    14    1
    10    14    15    1
    11    15    16    1
    12    16    17    1
    13    16    18    1
    14    18    19    1
    15    19    20    1
    16    20    21    1
    17    21    22    1
    18     3     4    1
    19     4     5    1
    20     5    24    1
    21    24    25    1
    22    25    26    2
    23    25    27   am
    24    27    29    1
    25    29    30   ar
    26    30    31   ar
    27    31    32   ar
    28    32    33   ar
    29    33    34    1
    30    33    35   ar
    31     9    10   ar
    32    10    11   ar
    33    11     6   ar
    34     5     1    1
    35    35    29   ar
    36    22    16    1
    37    17    23    1
    38    27    28    1
@<TRIPOS>MOLECULE
*****
 35 38 0 0 0
SMALL
GASTEIGER

@<TRIPOS>ATOM
      1 C         142.4954  138.5982  159.1072 C.3     1  UNL1        0.0401
      2 C         142.6615  137.5878  158.0110 C.3     1  UNL1        0.0765
      3 N         143.3706  138.2545  156.8697 N.3     1  UNL1       -0.2723
      4 C         143.6428  139.6769  157.2604 C.3     1  UNL1        0.0729
      5 C         143.1019  139.8893  158.6433 C.3     1  UNL1        0.0305
      6 C         140.5239  137.8817  163.0884 C.ar    1  UNL1        0.1387
      7 C         139.6867  138.1752  161.8789 C.ar    1  UNL1        0.0366
      8 C         140.3439  138.4140  160.5518 C.ar    1  UNL1       -0.0011
      9 C         141.8382  138.3594  160.4343 C.ar    1  UNL1       -0.0209
     10 C         142.6754  138.0659  161.6438 C.ar    1  UNL1       -0.0011
     11 C         142.0182  137.8271  162.9708 C.ar    1  UNL1        0.0366
     12 C         138.7175  138.5039  164.8490 C.3     1  UNL1        0.2525
     13 O         139.8667  137.6429  164.4155 O.3     1  UNL1       -0.4714
     14 C         143.7422  137.6116  155.5664 C.3     1  UNL1        0.0745
     15 C         144.1806  136.1774  155.5357 C.3     1  UNL1        0.0444
     16 C         143.1784  135.0923  155.2748 C.3     1  UNL1        0.0945
     17 O         142.9385  135.9620  154.0765 O.3     1  UNL1       -0.3865
     18 C         143.7664  134.5994  156.5637 C.3     1  UNL1        0.0591
     19 C         143.2689  133.3235  157.1757 C.3     1  UNL1        0.1446
     20 O         142.1833  132.5404  156.4986 O.3     1  UNL1       -0.3536
     21 C         141.5953  133.0332  155.2096 C.3     1  UNL1        0.1446
     22 C         142.0929  134.3092  154.5978 C.3     1  UNL1        0.0591
     23 H         143.5331  136.7278  154.1086 H       1  UNL1        0.2102
     24 C         143.1577  141.1683  159.4250 C.3     1  UNL1        0.0871
     25 C         141.8950  141.7764  159.9594 C.2     1  UNL1        0.2262
     26 O         140.7020  141.9361  159.0641 O.2     1  UNL1       -0.2748
     27 N         141.8250  142.2248  161.3891 N.am    1  UNL1       -0.2839
     28 H         142.6080  142.1200  161.9767 H       1  UNL1        0.1549
     29 C         140.5623  142.8329  161.9235 C.ar    1  UNL1        0.0511
     30 C         140.4257  144.3243  162.0088 C.ar    1  UNL1        0.0147
     31 C         139.1629  144.9324  162.5432 C.ar    1  UNL1        0.0021
     32 C         138.0367  144.0493  162.9922 C.ar    1  UNL1        0.0115
     33 C         138.1733  142.5579  162.9069 C.ar    1  UNL1        0.0589
     34 CL        137.0470  141.6747  163.3560 Cl      1  UNL1       -0.0822
     35 C         139.4361  141.9498  162.3725 C.ar    1  UNL1        0.0261
@<TRIPOS>BOND
     1    12    13    1
     2    13     6    1
     3     6     7   ar
     4     7     8   ar
     5     8     9   ar
     6     1     9    1
     7     1     2    1
     8     2     3    1
     9     3    14    1
    10    14    15    1
    11    15    16    1
    12    16    17    1
    13    16    18    1
    14    18    19    1
    15    19    20    1
    16    20    21    1
    17    21    22    1
    18     3     4    1
    19     4     5    1
    20     5    24    1
    21    24    25    1
    22    25    26    2
    23    25    27   am
    24    27    29    1
    25    29    30   ar
    26    30    31   ar
    27    31    32   ar
    28    32    33   ar
    29    33    34    1
    30    33    35   ar
    31     9    10   ar
    32    10    11   ar
    33    11     6   ar
    34     5     1    1
    35    35    29   ar
    36    22    16    1
    37    17    23    1
    38    27    28    1
@<TRIPOS>MOLECULE
*****
 35 38 0 0 0
SMALL
GASTEIGER

@<TRIPOS>ATOM
      1 C         143.7108  140.6835  159.0988 C.3     1  UNL1        0.0401
      2 C         144.1489  140.3326  157.7078 C.3     1  UNL1        0.0765
      3 N         144.9462  141.4831  157.1687 N.3     1  UNL1       -0.2723
      4 C         145.0009  142.5451  158.2266 C.3     1  UNL1        0.0729
      5 C         144.2374  142.0510  159.4194 C.3     1  UNL1        0.0305
      6 C         141.2491  138.0896  161.8304 C.ar    1  UNL1        0.1387
      7 C         140.5730  139.0513  160.8987 C.ar    1  UNL1        0.0366
      8 C         141.3935  139.9159  159.9882 C.ar    1  UNL1       -0.0011
      9 C         142.8902  139.8189  160.0093 C.ar    1  UNL1       -0.0209
     10 C         143.5663  138.8572  160.9410 C.ar    1  UNL1       -0.0011
     11 C         142.7457  137.9926  161.8515 C.ar    1  UNL1        0.0366
     12 C         138.9929  137.5679  163.0084 C.3     1  UNL1        0.2525
     13 O         140.4285  137.2250  162.7409 O.3     1  UNL1       -0.4714
     14 C         145.5779  141.5583  155.8103 C.3     1  UNL1        0.0745
     15 C         146.4911  142.6985  155.4700 C.3     1  UNL1        0.0444
     16 C         147.8504  142.4255  154.8975 C.3     1  UNL1        0.0945
     17 O         147.7490  141.2951  155.8781 O.3     1  UNL1       -0.3865
     18 C         147.4798  143.6508  154.1156 C.3     1  UNL1        0.0591
     19 C         148.4331  144.2105  153.1018 C.3     1  UNL1        0.1446
     20 O         149.7572  143.5449  152.8699 O.3     1  UNL1       -0.3536
     21 C         150.1280  142.3196  153.6517 C.3     1  UNL1        0.1446
     22 C         149.1745  141.7599  154.6655 C.3     1  UNL1        0.0591
     23 H         146.8965  141.3420  156.3385 H       1  UNL1        0.2102
     24 C         144.0359  142.7939  160.7068 C.3     1  UNL1        0.0871
     25 C         142.6651  143.2621  161.0960 C.2     1  UNL1        0.2262
     26 O         142.0711  144.4724  160.4382 O.2     1  UNL1       -0.2748
     27 N         141.8881  142.5202  162.1428 N.am    1  UNL1       -0.2839
     28 H         142.2779  141.7259  162.5745 H       1  UNL1        0.1549
     29 C         140.5173  142.9886  162.5319 C.ar    1  UNL1        0.0511
     30 C         139.3407  142.6745  161.6561 C.ar    1  UNL1        0.0147
     31 C         137.9698  143.1428  162.0452 C.ar    1  UNL1        0.0021
     32 C         137.7754  143.9252  163.3100 C.ar    1  UNL1        0.0115
     33 C         138.9520  144.2393  164.1859 C.ar    1  UNL1        0.0589
     34 CL        138.7577  145.0218  165.4509 Cl      1  UNL1       -0.0822
     35 C         140.3229  143.7710  163.7968 C.ar    1  UNL1        0.0261
@<TRIPOS>BOND
     1    12    13    1
     2    13     6    1
     3     6     7   ar
     4     7     8   ar
     5     8     9   ar
     6     1     9    1
     7     1     2    1
     8     2     3    1
     9     3    14    1
    10    14    15    1
    11    15    16    1
    12    16    17    1
    13    16    18    1
    14    18    19    1
    15    19    20    1
    16    20    21    1
    17    21    22    1
    18     3     4    1
    19     4     5    1
    20     5    24    1
    21    24    25    1
    22    25    26    2
    23    25    27   am
    24    27    29    1
    25    29    30   ar
    26    30    31   ar
    27    31    32   ar
    28    32    33   ar
    29    33    34    1
    30    33    35   ar
    31     9    10   ar
    32    10    11   ar
    33    11     6   ar
    34     5     1    1
    35    35    29   ar
    36    22    16    1
    37    17    23    1
    38    27    28    1
@<TRIPOS>MOLECULE
*****
 35 38 0 0 0
SMALL
GASTEIGER

@<TRIPOS>ATOM
      1 C         143.3228  139.7356  159.4432 C.3     1  UNL1        0.0401
      2 C         143.2795  139.6272  157.9478 C.3     1  UNL1        0.0765
      3 N         143.0619  138.1860  157.5936 N.3     1  UNL1       -0.2723
      4 C         142.9709  137.4036  158.8701 C.3     1  UNL1        0.0729
      5 C         143.1321  138.3613  160.0132 C.3     1  UNL1        0.0305
      6 C         143.9201  143.5193  161.8048 C.ar    1  UNL1        0.1387
      7 C         142.8833  143.4667  160.7222 C.ar    1  UNL1        0.0366
      8 C         142.6842  142.2055  159.9350 C.ar    1  UNL1       -0.0011
      9 C         143.5219  140.9969  160.2304 C.ar    1  UNL1       -0.0209
     10 C         144.5588  141.0494  161.3131 C.ar    1  UNL1       -0.0011
     11 C         144.7579  142.3106  162.1003 C.ar    1  UNL1        0.0366
     12 C         143.7330  144.8293  164.0406 C.3     1  UNL1        0.2525
     13 O         144.1192  144.7805  162.5920 O.3     1  UNL1       -0.4714
     14 C         142.9544  137.6255  156.2064 C.3     1  UNL1        0.0745
     15 C         143.6232  136.3261  155.8686 C.3     1  UNL1        0.0444
     16 C         142.7953  135.1061  155.5923 C.3     1  UNL1        0.0945
     17 O         142.2992  136.0098  154.5028 O.3     1  UNL1       -0.3865
     18 C         143.5790  134.6261  156.7779 C.3     1  UNL1        0.0591
     19 C         143.3626  133.2401  157.3088 C.3     1  UNL1        0.1446
     20 O         142.3624  132.3339  156.6541 O.3     1  UNL1       -0.3536
     21 C         141.5787  132.8138  155.4686 C.3     1  UNL1        0.1446
     22 C         141.7952  134.2000  154.9377 C.3     1  UNL1        0.0591
     23 H         142.7581  136.8627  154.5561 H       1  UNL1        0.2102
     24 C         143.1070  138.0069  161.4706 C.3     1  UNL1        0.0871
     25 C         141.8589  138.2236  162.2738 C.2     1  UNL1        0.2262
     26 O         140.6524  137.3660  162.0310 O.2     1  UNL1       -0.2748
     27 N         141.8171  139.2979  163.3198 N.am    1  UNL1       -0.2839
     28 H         142.6089  139.8608  163.4792 H       1  UNL1        0.1549
     29 C         140.5689  139.5145  164.1230 C.ar    1  UNL1        0.0511
     30 C         140.1165  138.4718  165.1018 C.ar    1  UNL1        0.0147
     31 C         138.8683  138.6884  165.9050 C.ar    1  UNL1        0.0021
     32 C         138.0725  139.9476  165.7294 C.ar    1  UNL1        0.0115
     33 C         138.5249  140.9904  164.7506 C.ar    1  UNL1        0.0589
     34 CL        137.7291  142.2497  164.5750 Cl      1  UNL1       -0.0822
     35 C         139.7731  140.7737  163.9474 C.ar    1  UNL1        0.0261
@<TRIPOS>BOND
     1    12    13    1
     2    13     6    1
     3     6     7   ar
     4     7     8   ar
     5     8     9   ar
     6     1     9    1
     7     1     2    1
     8     2     3    1
     9     3    14    1
    10    14    15    1
    11    15    16    1
    12    16    17    1
    13    16    18    1
    14    18    19    1
    15    19    20    1
    16    20    21    1
    17    21    22    1
    18     3     4    1
    19     4     5    1
    20     5    24    1
    21    24    25    1
    22    25    26    2
    23    25    27   am
    24    27    29    1
    25    29    30   ar
    26    30    31   ar
    27    31    32   ar
    28    32    33   ar
    29    33    34    1
    30    33    35   ar
    31     9    10   ar
    32    10    11   ar
    33    11     6   ar
    34     5     1    1
    35    35    29   ar
    36    22    16    1
    37    17    23    1
    38    27    28    1
