@<TRIPOS>MOLECULE
*****
 41 45 0 0 0
SMALL
GASTEIGER

@<TRIPOS>ATOM
      1 C         142.6041  139.4940  158.7844 C.ar    1  UNL1        0.0043
      2 C         143.5559  140.5520  158.3104 C.ar    1  UNL1        0.0206
      3 C         144.0203  141.6207  159.2551 C.ar    1  UNL1        0.1006
      4 N         143.5329  141.6314  160.6736 N.ar    1  UNL1       -0.2252
      5 C         142.5811  140.5734  161.1476 C.ar    1  UNL1        0.1652
      6 C         142.1167  139.5047  160.2030 C.ar    1  UNL1        0.0430
      7 N         142.0937  140.5840  162.5662 N.ar    1  UNL1       -0.1768
      8 N         140.8167  141.2893  162.9152 N.ar    1  UNL1       -0.1596
      9 C         140.3294  141.3000  164.3338 C.ar    1  UNL1        0.1208
     10 C         141.1190  140.6053  165.4033 C.ar    1  UNL1        0.0274
     11 C         140.6316  140.6160  166.8219 C.ar    1  UNL1       -0.0024
     12 C         141.4212  139.9214  167.8915 C.ar    1  UNL1       -0.0205
     13 C         142.6983  139.2160  167.5424 C.ar    1  UNL1        0.0255
     14 C         143.1856  139.2054  166.1239 C.ar    1  UNL1        0.1445
     15 F         144.4626  138.5001  165.7749 F       1  UNL1       -0.2040
     16 C         142.3960  139.9000  165.0543 C.ar    1  UNL1        0.0869
     17 C         142.8833  139.8894  163.6358 C.ar    1  UNL1        0.2838
     18 O         144.1603  139.1841  163.2867 O.2     1  UNL1       -0.2650
     19 C         140.9339  139.9320  169.3100 C.3     1  UNL1        0.0190
     20 C         139.5886  140.4046  168.8443 C.3     1  UNL1        0.0044
     21 C         142.2791  139.4595  169.7757 C.3     1  UNL1        0.0044
     22 C         140.4465  139.9427  170.7286 C.3     1  UNL1        0.0044
     23 C         139.0917  137.6895  155.4070 C.3     1  UNL1        0.1336
     24 N         140.3835  137.5231  156.1511 N.ar    1  UNL1       -0.2911
     25 C         140.8479  138.5918  157.0957 C.ar    1  UNL1        0.0784
     26 C         142.1396  138.4254  157.8398 C.ar    1  UNL1        0.0186
     27 C         142.9669  137.1904  157.6394 C.ar    1  UNL1        0.0210
     28 C         142.5025  136.1217  156.6948 C.ar    1  UNL1        0.1073
     29 C         141.2108  136.2880  155.9506 C.ar    1  UNL1        0.2745
     30 O         140.7463  135.2194  155.0061 O.2     1  UNL1       -0.2656
     31 N         143.3298  134.8866  156.4943 N.am    1  UNL1       -0.2801
     32 C         143.7218  134.0469  157.6738 C.2     1  UNL1        0.2285
     33 O         143.2864  134.4422  159.0537 O.2     1  UNL1       -0.2747
     34 H         143.6156  134.6272  155.5886 H       1  UNL1        0.1550
     35 C         144.5491  132.8118  157.4734 C.3     1  UNL1        0.1120
     36 C         145.5160  131.7956  158.0048 C.3     1  UNL1        0.0476
     37 C         145.0152  131.6889  156.5949 C.3     1  UNL1        0.1701
     38 F         144.9952  130.9790  155.2737 F       1  UNL1       -0.2368
     39 C         141.1648  138.4467  160.6770 C.3     1  UNL1        0.1667
     40 O         141.6702  137.2948  161.4941 O.3     1  UNL1       -0.3771
     41 H         142.2625  136.7496  160.9529 H       1  UNL1        0.2109
@<TRIPOS>BOND
     1    23    24    1
     2    24    25   ar
     3    25    26   ar
     4    26     1    1
     5     1     2   ar
     6     2     3   ar
     7     3     4   ar
     8     4     5   ar
     9     5     7    1
    10     7     8   ar
    11     8     9   ar
    12     9    10   ar
    13    10    11   ar
    14    11    12   ar
    15    12    19    1
    16    19    20    1
    17    19    21    1
    18    19    22    1
    19    12    13   ar
    20    13    14   ar
    21    14    15    1
    22    14    16   ar
    23    16    17   ar
    24    17    18    2
    25     5     6   ar
    26     6    39    1
    27    39    40    1
    28    26    27   ar
    29    27    28   ar
    30    28    31    1
    31    31    32   am
    32    32    33    2
    33    35    32    1
    34    35    36    1
    35    36    37    1
    36    37    38    1
    37    28    29   ar
    38    29    30    2
    39    29    24   ar
    40     6     1   ar
    41    37    35    1
    42    17     7   ar
    43    16    10   ar
    44    40    41    1
    45    31    34    1
@<TRIPOS>MOLECULE
*****
 41 45 0 0 0
SMALL
GASTEIGER

@<TRIPOS>ATOM
      1 C         140.2186  139.7849  159.0978 C.ar    1  UNL1        0.0043
      2 C         138.8179  139.8632  158.5669 C.ar    1  UNL1        0.0206
      3 C         137.7036  140.3292  159.4565 C.ar    1  UNL1        0.1006
      4 N         137.9900  140.7167  160.8769 N.ar    1  UNL1       -0.2252
      5 C         139.3907  140.6384  161.4078 C.ar    1  UNL1        0.1652
      6 C         140.5050  140.1725  160.5183 C.ar    1  UNL1        0.0430
      7 N         139.6771  141.0260  162.8284 N.ar    1  UNL1       -0.1768
      8 N         140.3599  142.3276  163.1275 N.ar    1  UNL1       -0.1596
      9 C         140.6463  142.7152  164.5480 C.ar    1  UNL1        0.1208
     10 C         140.2498  141.8011  165.6693 C.ar    1  UNL1        0.0274
     11 C         140.5362  142.1888  167.0898 C.ar    1  UNL1       -0.0024
     12 C         140.1398  141.2747  168.2111 C.ar    1  UNL1       -0.0205
     13 C         139.4569  139.9730  167.9119 C.ar    1  UNL1        0.0255
     14 C         139.1705  139.5855  166.4914 C.ar    1  UNL1        0.1445
     15 F         138.4877  138.2839  166.1923 F       1  UNL1       -0.2040
     16 C         139.5670  140.4995  165.3701 C.ar    1  UNL1        0.0869
     17 C         139.2806  140.1120  163.9497 C.ar    1  UNL1        0.2838
     18 O         138.5978  138.8103  163.6505 O.2     1  UNL1       -0.2650
     19 C         140.4261  141.6623  169.6316 C.3     1  UNL1        0.0190
     20 C         140.4613  143.1071  169.2303 C.3     1  UNL1        0.0044
     21 C         140.3909  140.2174  170.0329 C.3     1  UNL1        0.0044
     22 C         140.7125  142.0499  171.0521 C.3     1  UNL1        0.0044
     23 C         144.0254  140.8440  155.7235 C.3     1  UNL1        0.1336
     24 N         143.2363  139.8485  156.5212 N.ar    1  UNL1       -0.2911
     25 C         142.1220  140.3144  157.4107 C.ar    1  UNL1        0.0784
     26 C         141.3329  139.3189  158.2083 C.ar    1  UNL1        0.0186
     27 C         141.6580  137.8575  158.1165 C.ar    1  UNL1        0.0210
     28 C         142.7723  137.3915  157.2270 C.ar    1  UNL1        0.1073
     29 C         143.5615  138.3870  156.4293 C.ar    1  UNL1        0.2745
     30 O         144.6758  137.9211  155.5398 O.2     1  UNL1       -0.2656
     31 N         143.0975  135.9301  157.1351 N.am    1  UNL1       -0.2801
     32 C         142.3615  135.0578  156.1618 C.2     1  UNL1        0.2285
     33 O         141.3004  135.6469  155.2804 O.2     1  UNL1       -0.2747
     34 H         143.7939  135.5434  157.7137 H       1  UNL1        0.1550
     35 C         142.6866  133.5963  156.0700 C.3     1  UNL1        0.1120
     36 C         142.2361  132.1688  155.9736 C.3     1  UNL1        0.0476
     37 C         143.7003  132.4924  156.0072 C.3     1  UNL1        0.1701
     38 F         145.1310  132.0419  155.9903 F       1  UNL1       -0.2368
     39 C         141.9057  140.0941  161.0493 C.3     1  UNL1        0.1667
     40 O         142.6908  141.3509  161.2824 O.3     1  UNL1       -0.3771
     41 H         142.8632  141.7866  160.4332 H       1  UNL1        0.2109
@<TRIPOS>BOND
     1    23    24    1
     2    24    25   ar
     3    25    26   ar
     4    26     1    1
     5     1     2   ar
     6     2     3   ar
     7     3     4   ar
     8     4     5   ar
     9     5     7    1
    10     7     8   ar
    11     8     9   ar
    12     9    10   ar
    13    10    11   ar
    14    11    12   ar
    15    12    19    1
    16    19    20    1
    17    19    21    1
    18    19    22    1
    19    12    13   ar
    20    13    14   ar
    21    14    15    1
    22    14    16   ar
    23    16    17   ar
    24    17    18    2
    25     5     6   ar
    26     6    39    1
    27    39    40    1
    28    26    27   ar
    29    27    28   ar
    30    28    31    1
    31    31    32   am
    32    32    33    2
    33    35    32    1
    34    35    36    1
    35    36    37    1
    36    37    38    1
    37    28    29   ar
    38    29    30    2
    39    29    24   ar
    40     6     1   ar
    41    37    35    1
    42    17     7   ar
    43    16    10   ar
    44    40    41    1
    45    31    34    1
@<TRIPOS>MOLECULE
*****
 41 45 0 0 0
SMALL
GASTEIGER

@<TRIPOS>ATOM
      1 C         140.1254  139.2970  158.9504 C.ar    1  UNL1        0.0043
      2 C         138.8559  139.8020  158.3313 C.ar    1  UNL1        0.0206
      3 C         137.7247  140.2573  159.2051 C.ar    1  UNL1        0.1006
      4 N         137.8632  140.2076  160.6978 N.ar    1  UNL1       -0.2252
      5 C         139.1328  139.7027  161.3169 C.ar    1  UNL1        0.1652
      6 C         140.2639  139.2474  160.4432 C.ar    1  UNL1        0.0430
      7 N         139.2713  139.6530  162.8097 N.ar    1  UNL1       -0.1768
      8 N         138.9476  138.3900  163.5513 N.ar    1  UNL1       -0.1596
      9 C         139.0860  138.3404  165.0440 C.ar    1  UNL1        0.1208
     10 C         139.5482  139.5538  165.7952 C.ar    1  UNL1        0.0274
     11 C         139.6866  139.5041  167.2880 C.ar    1  UNL1       -0.0024
     12 C         140.1488  140.7175  168.0391 C.ar    1  UNL1       -0.0205
     13 C         140.4725  141.9805  167.2974 C.ar    1  UNL1        0.0255
     14 C         140.3340  142.0301  165.8046 C.ar    1  UNL1        0.1445
     15 F         140.6577  143.2931  165.0630 F       1  UNL1       -0.2040
     16 C         139.8719  140.8168  165.0535 C.ar    1  UNL1        0.0869
     17 C         139.7334  140.8664  163.5608 C.ar    1  UNL1        0.2838
     18 O         140.0571  142.1294  162.8191 O.2     1  UNL1       -0.2650
     19 C         140.2873  140.6679  169.5318 C.3     1  UNL1        0.0190
     20 C         138.8496  140.2572  169.6515 C.3     1  UNL1        0.0044
     21 C         141.7249  141.0786  169.4121 C.3     1  UNL1        0.0044
     22 C         140.4257  140.6183  171.0246 C.3     1  UNL1        0.0044
     23 C         144.6484  140.2573  156.5796 C.3     1  UNL1        0.1336
     24 N         143.5180  139.3219  156.8913 N.ar    1  UNL1       -0.2911
     25 C         142.3869  139.7772  157.7650 C.ar    1  UNL1        0.0784
     26 C         141.2565  138.8418  158.0767 C.ar    1  UNL1        0.0186
     27 C         141.2571  137.4510  157.5147 C.ar    1  UNL1        0.0210
     28 C         142.3882  136.9957  156.6410 C.ar    1  UNL1        0.1073
     29 C         143.5187  137.9311  156.3293 C.ar    1  UNL1        0.2745
     30 O         144.6497  137.4758  155.4556 O.2     1  UNL1       -0.2656
     31 N         142.3889  135.6050  156.0790 N.am    1  UNL1       -0.2801
     32 C         142.9751  134.4755  156.8731 C.2     1  UNL1        0.2285
     33 O         143.5606  134.7367  158.2291 O.2     1  UNL1       -0.2747
     34 H         142.0046  135.4335  155.1890 H       1  UNL1        0.1550
     35 C         142.9758  133.0847  156.3111 C.3     1  UNL1        0.1120
     36 C         142.2293  131.9046  155.7635 C.3     1  UNL1        0.0476
     37 C         143.7235  131.8560  155.8854 C.3     1  UNL1        0.1701
     38 F         145.0178  131.1185  155.7101 F       1  UNL1       -0.2368
     39 C         141.5334  138.7424  161.0622 C.3     1  UNL1        0.1667
     40 O         141.5605  137.3983  161.7277 O.3     1  UNL1       -0.3771
     41 H         140.9921  137.4152  162.5136 H       1  UNL1        0.2109
@<TRIPOS>BOND
     1    23    24    1
     2    24    25   ar
     3    25    26   ar
     4    26     1    1
     5     1     2   ar
     6     2     3   ar
     7     3     4   ar
     8     4     5   ar
     9     5     7    1
    10     7     8   ar
    11     8     9   ar
    12     9    10   ar
    13    10    11   ar
    14    11    12   ar
    15    12    19    1
    16    19    20    1
    17    19    21    1
    18    19    22    1
    19    12    13   ar
    20    13    14   ar
    21    14    15    1
    22    14    16   ar
    23    16    17   ar
    24    17    18    2
    25     5     6   ar
    26     6    39    1
    27    39    40    1
    28    26    27   ar
    29    27    28   ar
    30    28    31    1
    31    31    32   am
    32    32    33    2
    33    35    32    1
    34    35    36    1
    35    36    37    1
    36    37    38    1
    37    28    29   ar
    38    29    30    2
    39    29    24   ar
    40     6     1   ar
    41    37    35    1
    42    17     7   ar
    43    16    10   ar
    44    40    41    1
    45    31    34    1
@<TRIPOS>MOLECULE
*****
 41 45 0 0 0
SMALL
GASTEIGER

@<TRIPOS>ATOM
      1 C         140.0547  139.3961  159.2356 C.ar    1  UNL1        0.0043
      2 C         138.7576  139.8482  158.6332 C.ar    1  UNL1        0.0206
      3 C         137.6480  140.3329  159.5187 C.ar    1  UNL1        0.1006
      4 N         137.8356  140.3654  161.0065 N.ar    1  UNL1       -0.2252
      5 C         139.1328  139.9133  161.6089 C.ar    1  UNL1        0.1652
      6 C         140.2423  139.4286  160.7235 C.ar    1  UNL1        0.0430
      7 N         139.3204  139.9458  163.0969 N.ar    1  UNL1       -0.1768
      8 N         139.0310  138.7232  163.9162 N.ar    1  UNL1       -0.1596
      9 C         139.2186  138.7558  165.4040 C.ar    1  UNL1        0.1208
     10 C         139.6956  140.0110  166.0725 C.ar    1  UNL1        0.0274
     11 C         139.8832  140.0435  167.5605 C.ar    1  UNL1       -0.0024
     12 C         140.3603  141.2987  168.2289 C.ar    1  UNL1       -0.0205
     13 C         140.6497  142.5214  167.4095 C.ar    1  UNL1        0.0255
     14 C         140.4621  142.4888  165.9217 C.ar    1  UNL1        0.1445
     15 F         140.7515  143.7114  165.1024 F       1  UNL1       -0.2040
     16 C         139.9851  141.2336  165.2532 C.ar    1  UNL1        0.0869
     17 C         139.7975  141.2010  163.7654 C.ar    1  UNL1        0.2838
     18 O         140.0869  142.4237  162.9459 O.2     1  UNL1       -0.2650
     19 C         140.5479  141.3313  169.7168 C.3     1  UNL1        0.0190
     20 C         140.2710  142.8055  169.7194 C.3     1  UNL1        0.0044
     21 C         140.8248  139.8571  169.7141 C.3     1  UNL1        0.0044
     22 C         140.7355  141.3639  171.2047 C.3     1  UNL1        0.0044
     23 C         141.9269  135.9128  155.8650 C.3     1  UNL1        0.1336
     24 N         142.1004  137.1698  156.6649 N.ar    1  UNL1       -0.2911
     25 C         140.9908  137.6544  157.5503 C.ar    1  UNL1        0.0784
     26 C         141.1643  138.9114  158.3502 C.ar    1  UNL1        0.0186
     27 C         142.4473  139.6838  158.2647 C.ar    1  UNL1        0.0210
     28 C         143.5569  139.1991  157.3793 C.ar    1  UNL1        0.1073
     29 C         143.3834  137.9421  156.5794 C.ar    1  UNL1        0.2745
     30 O         144.4930  137.4575  155.6940 O.2     1  UNL1       -0.2656
     31 N         144.8399  139.9715  157.2938 N.am    1  UNL1       -0.2801
     32 C         145.0552  140.9464  156.1743 C.2     1  UNL1        0.2285
     33 O         143.9875  141.1489  155.1404 O.2     1  UNL1       -0.2747
     34 H         145.5406  139.8386  157.9724 H       1  UNL1        0.1550
     35 C         146.3382  141.7188  156.0888 C.3     1  UNL1        0.1120
     36 C         147.5239  142.1843  155.2967 C.3     1  UNL1        0.0476
     37 C         147.3748  142.5911  156.7327 C.3     1  UNL1        0.1701
     38 F         147.8871  143.3297  157.9335 F       1  UNL1       -0.2368
     39 C         141.5395  138.9765  161.3260 C.3     1  UNL1        0.1667
     40 O         141.7656  137.5220  161.6150 O.3     1  UNL1       -0.3771
     41 H         141.1540  137.2315  162.3096 H       1  UNL1        0.2109
@<TRIPOS>BOND
     1    23    24    1
     2    24    25   ar
     3    25    26   ar
     4    26     1    1
     5     1     2   ar
     6     2     3   ar
     7     3     4   ar
     8     4     5   ar
     9     5     7    1
    10     7     8   ar
    11     8     9   ar
    12     9    10   ar
    13    10    11   ar
    14    11    12   ar
    15    12    19    1
    16    19    20    1
    17    19    21    1
    18    19    22    1
    19    12    13   ar
    20    13    14   ar
    21    14    15    1
    22    14    16   ar
    23    16    17   ar
    24    17    18    2
    25     5     6   ar
    26     6    39    1
    27    39    40    1
    28    26    27   ar
    29    27    28   ar
    30    28    31    1
    31    31    32   am
    32    32    33    2
    33    35    32    1
    34    35    36    1
    35    36    37    1
    36    37    38    1
    37    28    29   ar
    38    29    30    2
    39    29    24   ar
    40     6     1   ar
    41    37    35    1
    42    17     7   ar
    43    16    10   ar
    44    40    41    1
    45    31    34    1
@<TRIPOS>MOLECULE
*****
 41 45 0 0 0
SMALL
GASTEIGER

@<TRIPOS>ATOM
      1 C         140.0636  143.0818  159.1204 C.ar    1  UNL1        0.0043
      2 C         140.5603  144.3981  158.6001 C.ar    1  UNL1        0.0206
      3 C         141.0609  145.4413  159.5547 C.ar    1  UNL1        0.1006
      4 N         141.0648  145.1682  161.0296 N.ar    1  UNL1       -0.2252
      5 C         140.5682  143.8519  161.5499 C.ar    1  UNL1        0.1652
      6 C         140.0675  142.8088  160.5954 C.ar    1  UNL1        0.0430
      7 N         140.5721  143.5788  163.0249 N.ar    1  UNL1       -0.1768
      8 N         139.2993  143.6870  163.8111 N.ar    1  UNL1       -0.1596
      9 C         139.3033  143.4140  165.2860 C.ar    1  UNL1        0.1208
     10 C         140.5801  143.0327  165.9747 C.ar    1  UNL1        0.0274
     11 C         140.5840  142.7596  167.4497 C.ar    1  UNL1       -0.0024
     12 C         141.8609  142.3784  168.1384 C.ar    1  UNL1       -0.0205
     13 C         143.1338  142.2702  167.3521 C.ar    1  UNL1        0.0255
     14 C         143.1298  142.5432  165.8772 C.ar    1  UNL1        0.1445
     15 F         144.4026  142.4350  165.0911 F       1  UNL1       -0.2040
     16 C         141.8529  142.9245  165.1885 C.ar    1  UNL1        0.0869
     17 C         141.8489  143.1976  163.7136 C.ar    1  UNL1        0.2838
     18 O         143.1218  143.0894  162.9274 O.2     1  UNL1       -0.2650
     19 C         141.8649  142.1053  169.6133 C.3     1  UNL1        0.0190
     20 C         141.0062  143.3142  169.8394 C.3     1  UNL1        0.0044
     21 C         142.7235  140.8964  169.3872 C.3     1  UNL1        0.0044
     22 C         141.8688  141.8323  171.0883 C.3     1  UNL1        0.0044
     23 C         140.9974  139.4997  155.4741 C.3     1  UNL1        0.1336
     24 N         140.0299  140.2476  156.3427 N.ar    1  UNL1       -0.2911
     25 C         140.5305  141.2908  157.2972 C.ar    1  UNL1        0.0784
     26 C         139.5630  142.0387  158.1659 C.ar    1  UNL1        0.0186
     27 C         138.0949  141.7435  158.0800 C.ar    1  UNL1        0.0210
     28 C         137.5942  140.7003  157.1254 C.ar    1  UNL1        0.1073
     29 C         138.5617  139.9523  156.2568 C.ar    1  UNL1        0.2745
     30 O         138.0611  138.9092  155.3023 O.2     1  UNL1       -0.2656
     31 N         136.1260  140.4050  157.0396 N.am    1  UNL1       -0.2801
     32 C         135.2854  141.0789  155.9960 C.2     1  UNL1        0.2285
     33 O         135.9128  142.0480  155.0383 O.2     1  UNL1       -0.2747
     34 H         135.7142  139.7690  157.6681 H       1  UNL1        0.1550
     35 C         133.8172  140.7837  155.9101 C.3     1  UNL1        0.1120
     36 C         132.4207  141.2233  155.5836 C.3     1  UNL1        0.0476
     37 C         132.6707  139.8329  156.0877 C.3     1  UNL1        0.1701
     38 F         132.1532  138.4811  156.4812 F       1  UNL1       -0.2368
     39 C         139.5708  141.4925  161.1158 C.3     1  UNL1        0.1667
     40 O         138.2541  141.4172  161.8304 O.3     1  UNL1       -0.3771
     41 H         138.3098  141.9106  162.6636 H       1  UNL1        0.2109
@<TRIPOS>BOND
     1    23    24    1
     2    24    25   ar
     3    25    26   ar
     4    26     1    1
     5     1     2   ar
     6     2     3   ar
     7     3     4   ar
     8     4     5   ar
     9     5     7    1
    10     7     8   ar
    11     8     9   ar
    12     9    10   ar
    13    10    11   ar
    14    11    12   ar
    15    12    19    1
    16    19    20    1
    17    19    21    1
    18    19    22    1
    19    12    13   ar
    20    13    14   ar
    21    14    15    1
    22    14    16   ar
    23    16    17   ar
    24    17    18    2
    25     5     6   ar
    26     6    39    1
    27    39    40    1
    28    26    27   ar
    29    27    28   ar
    30    28    31    1
    31    31    32   am
    32    32    33    2
    33    35    32    1
    34    35    36    1
    35    36    37    1
    36    37    38    1
    37    28    29   ar
    38    29    30    2
    39    29    24   ar
    40     6     1   ar
    41    37    35    1
    42    17     7   ar
    43    16    10   ar
    44    40    41    1
    45    31    34    1
@<TRIPOS>MOLECULE
*****
 41 45 0 0 0
SMALL
GASTEIGER

@<TRIPOS>ATOM
      1 C         142.3873  143.4368  158.2238 C.ar    1  UNL1        0.0043
      2 C         143.6633  143.0985  157.5113 C.ar    1  UNL1        0.0206
      3 C         144.8589  142.6388  158.2918 C.ar    1  UNL1        0.1006
      4 N         144.7786  142.5173  159.7847 N.ar    1  UNL1       -0.2252
      5 C         143.5026  142.8555  160.4972 C.ar    1  UNL1        0.1652
      6 C         142.3070  143.3152  159.7167 C.ar    1  UNL1        0.0430
      7 N         143.4224  142.7340  161.9901 N.ar    1  UNL1       -0.1768
      8 N         143.6053  143.9477  162.8523 N.ar    1  UNL1       -0.1596
      9 C         143.5250  143.8261  164.3452 C.ar    1  UNL1        0.1208
     10 C         143.2618  142.4908  164.9759 C.ar    1  UNL1        0.0274
     11 C         143.1815  142.3693  166.4688 C.ar    1  UNL1       -0.0024
     12 C         142.9183  141.0340  167.0995 C.ar    1  UNL1       -0.0205
     13 C         142.7353  139.8203  166.2372 C.ar    1  UNL1        0.0255
     14 C         142.8156  139.9419  164.7444 C.ar    1  UNL1        0.1445
     15 F         142.6326  138.7282  163.8822 F       1  UNL1       -0.2040
     16 C         143.0788  141.2771  164.1137 C.ar    1  UNL1        0.0869
     17 C         143.1591  141.3987  162.6208 C.ar    1  UNL1        0.2838
     18 O         142.9761  140.1850  161.7585 O.2     1  UNL1       -0.2650
     19 C         142.8380  140.9125  168.5924 C.3     1  UNL1        0.0190
     20 C         142.4945  139.4588  168.4555 C.3     1  UNL1        0.0044
     21 C         143.1815  142.3662  168.7293 C.3     1  UNL1        0.0044
     22 C         142.7577  140.7908  170.0854 C.3     1  UNL1        0.0044
     23 C         137.9829  142.3576  155.6868 C.3     1  UNL1        0.1336
     24 N         138.9895  143.3569  156.1749 N.ar    1  UNL1       -0.2911
     25 C         140.1851  142.8972  156.9553 C.ar    1  UNL1        0.0784
     26 C         141.1917  143.8965  157.4433 C.ar    1  UNL1        0.0186
     27 C         141.0027  145.3555  157.1510 C.ar    1  UNL1        0.0210
     28 C         139.8070  145.8153  156.3705 C.ar    1  UNL1        0.1073
     29 C         138.8004  144.8160  155.8825 C.ar    1  UNL1        0.2745
     30 O         137.6048  145.2757  155.1020 O.2     1  UNL1       -0.2656
     31 N         139.6180  147.2743  156.0781 N.am    1  UNL1       -0.2801
     32 C         139.9681  147.8195  154.7253 C.2     1  UNL1        0.2285
     33 O         140.5072  146.9058  153.6649 O.2     1  UNL1       -0.2747
     34 H         139.2642  147.8740  156.7741 H       1  UNL1        0.1550
     35 C         139.7791  149.2786  154.4329 C.3     1  UNL1        0.1120
     36 C         140.0813  150.4852  153.5946 C.3     1  UNL1        0.0476
     37 C         139.1497  150.5991  154.7646 C.3     1  UNL1        0.1701
     38 F         138.2484  151.4272  155.6317 F       1  UNL1       -0.2368
     39 C         141.0311  143.6534  160.4292 C.3     1  UNL1        0.1667
     40 O         140.9340  144.9145  161.2356 O.3     1  UNL1       -0.3771
     41 H         141.5345  144.8595  161.9954 H       1  UNL1        0.2109
@<TRIPOS>BOND
     1    23    24    1
     2    24    25   ar
     3    25    26   ar
     4    26     1    1
     5     1     2   ar
     6     2     3   ar
     7     3     4   ar
     8     4     5   ar
     9     5     7    1
    10     7     8   ar
    11     8     9   ar
    12     9    10   ar
    13    10    11   ar
    14    11    12   ar
    15    12    19    1
    16    19    20    1
    17    19    21    1
    18    19    22    1
    19    12    13   ar
    20    13    14   ar
    21    14    15    1
    22    14    16   ar
    23    16    17   ar
    24    17    18    2
    25     5     6   ar
    26     6    39    1
    27    39    40    1
    28    26    27   ar
    29    27    28   ar
    30    28    31    1
    31    31    32   am
    32    32    33    2
    33    35    32    1
    34    35    36    1
    35    36    37    1
    36    37    38    1
    37    28    29   ar
    38    29    30    2
    39    29    24   ar
    40     6     1   ar
    41    37    35    1
    42    17     7   ar
    43    16    10   ar
    44    40    41    1
    45    31    34    1
@<TRIPOS>MOLECULE
*****
 41 45 0 0 0
SMALL
GASTEIGER

@<TRIPOS>ATOM
      1 C         140.5714  141.1023  158.9848 C.ar    1  UNL1        0.0043
      2 C         139.4274  141.7849  158.2954 C.ar    1  UNL1        0.0206
      3 C         138.4682  142.6243  159.0863 C.ar    1  UNL1        0.1006
      4 N         138.6531  142.7811  160.5665 N.ar    1  UNL1       -0.2252
      5 C         139.7971  142.0985  161.2559 C.ar    1  UNL1        0.1652
      6 C         140.7562  141.2591  160.4651 C.ar    1  UNL1        0.0430
      7 N         139.9819  142.2553  162.7363 N.ar    1  UNL1       -0.1768
      8 N         140.5692  143.5201  163.2890 N.ar    1  UNL1       -0.1596
      9 C         140.7540  143.6768  164.7692 C.ar    1  UNL1        0.1208
     10 C         140.3515  142.5689  165.6968 C.ar    1  UNL1        0.0274
     11 C         140.5364  142.7257  167.1771 C.ar    1  UNL1       -0.0024
     12 C         140.1339  141.6177  168.1047 C.ar    1  UNL1       -0.0205
     13 C         139.5466  140.3529  167.5520 C.ar    1  UNL1        0.0255
     14 C         139.3617  140.1962  166.0717 C.ar    1  UNL1        0.1445
     15 F         138.7744  138.9315  165.5191 F       1  UNL1       -0.2040
     16 C         139.7642  141.3041  165.1441 C.ar    1  UNL1        0.0869
     17 C         139.5794  141.1474  163.6639 C.ar    1  UNL1        0.2838
     18 O         138.9921  139.8826  163.1111 O.2     1  UNL1       -0.2650
     19 C         140.3187  141.7745  169.5850 C.3     1  UNL1        0.0190
     20 C         141.2533  142.9233  169.3467 C.3     1  UNL1        0.0044
     21 C         139.3841  140.6257  169.8233 C.3     1  UNL1        0.0044
     22 C         140.5036  141.9313  171.0653 C.3     1  UNL1        0.0044
     23 C         141.6418  136.7309  156.3878 C.3     1  UNL1        0.1336
     24 N         142.0657  138.0772  156.8955 N.ar    1  UNL1       -0.2911
     25 C         141.1066  138.9166  157.6863 C.ar    1  UNL1        0.0784
     26 C         141.5305  140.2629  158.1940 C.ar    1  UNL1        0.0186
     27 C         142.9135  140.7698  157.9108 C.ar    1  UNL1        0.0210
     28 C         143.8727  139.9304  157.1200 C.ar    1  UNL1        0.1073
     29 C         143.4488  138.5841  156.6123 C.ar    1  UNL1        0.2745
     30 O         144.4080  137.7447  155.8215 O.2     1  UNL1       -0.2656
     31 N         145.2558  140.4374  156.8368 N.am    1  UNL1       -0.2801
     32 C         145.5138  141.2711  155.6169 C.2     1  UNL1        0.2285
     33 O         144.3888  141.5979  154.6801 O.2     1  UNL1       -0.2747
     34 H         145.9941  140.2229  157.4517 H       1  UNL1        0.1550
     35 C         146.8969  141.7781  155.3337 C.3     1  UNL1        0.1120
     36 C         148.3814  141.6777  155.5235 C.3     1  UNL1        0.0476
     37 C         147.8078  142.7565  154.6535 C.3     1  UNL1        0.1701
     38 F         148.0026  143.9443  153.7584 F       1  UNL1       -0.2368
     39 C         141.9002  140.5765  161.1546 C.3     1  UNL1        0.1667
     40 O         141.7090  139.2159  161.7565 O.3     1  UNL1       -0.3771
     41 H         141.0850  139.2747  162.4969 H       1  UNL1        0.2109
@<TRIPOS>BOND
     1    23    24    1
     2    24    25   ar
     3    25    26   ar
     4    26     1    1
     5     1     2   ar
     6     2     3   ar
     7     3     4   ar
     8     4     5   ar
     9     5     7    1
    10     7     8   ar
    11     8     9   ar
    12     9    10   ar
    13    10    11   ar
    14    11    12   ar
    15    12    19    1
    16    19    20    1
    17    19    21    1
    18    19    22    1
    19    12    13   ar
    20    13    14   ar
    21    14    15    1
    22    14    16   ar
    23    16    17   ar
    24    17    18    2
    25     5     6   ar
    26     6    39    1
    27    39    40    1
    28    26    27   ar
    29    27    28   ar
    30    28    31    1
    31    31    32   am
    32    32    33    2
    33    35    32    1
    34    35    36    1
    35    36    37    1
    36    37    38    1
    37    28    29   ar
    38    29    30    2
    39    29    24   ar
    40     6     1   ar
    41    37    35    1
    42    17     7   ar
    43    16    10   ar
    44    40    41    1
    45    31    34    1
@<TRIPOS>MOLECULE
*****
 41 45 0 0 0
SMALL
GASTEIGER

@<TRIPOS>ATOM
      1 C         141.4443  143.7815  158.3550 C.ar    1  UNL1        0.0043
      2 C         142.8010  143.3686  157.8666 C.ar    1  UNL1        0.0206
      3 C         143.8163  142.8358  158.8338 C.ar    1  UNL1        0.1006
      4 N         143.4747  142.7159  160.2894 N.ar    1  UNL1       -0.2252
      5 C         142.1179  143.1288  160.7779 C.ar    1  UNL1        0.1652
      6 C         141.1027  143.6616  159.8108 C.ar    1  UNL1        0.0430
      7 N         141.7764  143.0089  162.2336 N.ar    1  UNL1       -0.1768
      8 N         141.8436  144.2159  163.1216 N.ar    1  UNL1       -0.1596
      9 C         141.5020  144.0960  164.5773 C.ar    1  UNL1        0.1208
     10 C         141.0933  142.7690  165.1449 C.ar    1  UNL1        0.0274
     11 C         140.7518  142.6491  166.6006 C.ar    1  UNL1       -0.0024
     12 C         140.3430  141.3222  167.1683 C.ar    1  UNL1       -0.0205
     13 C         140.2759  140.1152  166.2802 C.ar    1  UNL1        0.0255
     14 C         140.6174  140.2351  164.8245 C.ar    1  UNL1        0.1445
     15 F         140.5502  139.0281  163.9365 F       1  UNL1       -0.2040
     16 C         141.0261  141.5620  164.2569 C.ar    1  UNL1        0.0869
     17 C         141.3677  141.6820  162.8013 C.ar    1  UNL1        0.2838
     18 O         141.3005  140.4749  161.9132 O.2     1  UNL1       -0.2650
     19 C         140.0015  141.2023  168.6239 C.3     1  UNL1        0.0190
     20 C         139.3234  139.8913  168.3568 C.3     1  UNL1        0.0044
     21 C         140.6797  142.5132  168.8910 C.3     1  UNL1        0.0044
     22 C         139.6599  141.0823  170.0796 C.3     1  UNL1        0.0044
     23 C         137.3741  143.0038  155.2200 C.3     1  UNL1        0.1336
     24 N         138.3940  143.9254  155.8204 N.ar    1  UNL1       -0.2911
     25 C         139.4092  143.3926  156.7875 C.ar    1  UNL1        0.0784
     26 C         140.4290  144.3143  157.3879 C.ar    1  UNL1        0.0186
     27 C         140.4337  145.7687  157.0211 C.ar    1  UNL1        0.0210
     28 C         139.4184  146.3016  156.0539 C.ar    1  UNL1        0.1073
     29 C         138.3986  145.3799  155.4536 C.ar    1  UNL1        0.2745
     30 O         137.3833  145.9127  154.4864 O.2     1  UNL1       -0.2656
     31 N         139.4231  147.7560  155.6872 N.am    1  UNL1       -0.2801
     32 C         140.1160  148.2121  154.4375 C.2     1  UNL1        0.2285
     33 O         140.8044  147.2138  153.5546 O.2     1  UNL1       -0.2747
     34 H         138.9713  148.4112  156.2667 H       1  UNL1        0.1550
     35 C         140.1207  149.6666  154.0707 C.3     1  UNL1        0.1120
     36 C         139.4801  150.8344  153.3809 C.3     1  UNL1        0.0476
     37 C         140.7694  151.0180  154.1252 C.3     1  UNL1        0.1701
     38 F         141.8882  151.9042  154.5864 F       1  UNL1       -0.2368
     39 C         139.7459  144.0745  160.2993 C.3     1  UNL1        0.1667
     40 O         139.5829  145.3505  161.0709 O.3     1  UNL1       -0.3771
     41 H         140.0455  145.2761  161.9202 H       1  UNL1        0.2109
@<TRIPOS>BOND
     1    23    24    1
     2    24    25   ar
     3    25    26   ar
     4    26     1    1
     5     1     2   ar
     6     2     3   ar
     7     3     4   ar
     8     4     5   ar
     9     5     7    1
    10     7     8   ar
    11     8     9   ar
    12     9    10   ar
    13    10    11   ar
    14    11    12   ar
    15    12    19    1
    16    19    20    1
    17    19    21    1
    18    19    22    1
    19    12    13   ar
    20    13    14   ar
    21    14    15    1
    22    14    16   ar
    23    16    17   ar
    24    17    18    2
    25     5     6   ar
    26     6    39    1
    27    39    40    1
    28    26    27   ar
    29    27    28   ar
    30    28    31    1
    31    31    32   am
    32    32    33    2
    33    35    32    1
    34    35    36    1
    35    36    37    1
    36    37    38    1
    37    28    29   ar
    38    29    30    2
    39    29    24   ar
    40     6     1   ar
    41    37    35    1
    42    17     7   ar
    43    16    10   ar
    44    40    41    1
    45    31    34    1
@<TRIPOS>MOLECULE
*****
 41 45 0 0 0
SMALL
GASTEIGER

@<TRIPOS>ATOM
      1 C         142.9614  142.7946  158.9949 C.ar    1  UNL1        0.0043
      2 C         142.2903  144.0461  158.5117 C.ar    1  UNL1        0.0206
      3 C         141.7436  145.0334  159.4998 C.ar    1  UNL1        0.1006
      4 N         141.8681  144.7693  160.9711 N.ar    1  UNL1       -0.2252
      5 C         142.5392  143.5179  161.4543 C.ar    1  UNL1        0.1652
      6 C         143.0858  142.5305  160.4663 C.ar    1  UNL1        0.0430
      7 N         142.6636  143.2538  162.9257 N.ar    1  UNL1       -0.1768
      8 N         144.0027  143.3508  163.5945 N.ar    1  UNL1       -0.1596
      9 C         144.1270  143.0867  165.0658 C.ar    1  UNL1        0.1208
     10 C         142.9123  142.7256  165.8683 C.ar    1  UNL1        0.0274
     11 C         143.0367  142.4615  167.3397 C.ar    1  UNL1       -0.0024
     12 C         141.8220  142.1004  168.1422 C.ar    1  UNL1       -0.0205
     13 C         140.4828  142.0033  167.4733 C.ar    1  UNL1        0.0255
     14 C         140.3585  142.2674  166.0020 C.ar    1  UNL1        0.1445
     15 F         139.0194  142.1703  165.3332 F       1  UNL1       -0.2040
     16 C         141.5732  142.6285  165.1995 C.ar    1  UNL1        0.0869
     17 C         141.4488  142.8926  163.7282 C.ar    1  UNL1        0.2838
     18 O         140.1097  142.7956  163.0593 O.2     1  UNL1       -0.2650
     19 C         141.9463  141.8363  169.6135 C.3     1  UNL1        0.0190
     20 C         142.8695  140.6887  169.3294 C.3     1  UNL1        0.0044
     21 C         141.0231  142.9839  169.8975 C.3     1  UNL1        0.0044
     22 C         142.0707  141.5721  171.0848 C.3     1  UNL1        0.0044
     23 C         142.3174  138.5947  156.0040 C.3     1  UNL1        0.1336
     24 N         143.1861  139.7073  156.5114 N.ar    1  UNL1       -0.2911
     25 C         142.6394  140.6946  157.4995 C.ar    1  UNL1        0.0784
     26 C         143.5081  141.8073  158.0069 C.ar    1  UNL1        0.0186
     27 C         144.9234  141.9326  157.5262 C.ar    1  UNL1        0.0210
     28 C         145.4702  140.9453  156.5381 C.ar    1  UNL1        0.1073
     29 C         144.6015  139.8326  156.0307 C.ar    1  UNL1        0.2745
     30 O         145.1482  138.8453  155.0427 O.2     1  UNL1       -0.2656
     31 N         146.8855  141.0706  156.0575 N.am    1  UNL1       -0.2801
     32 C         147.2199  142.0265  154.9510 C.2     1  UNL1        0.2285
     33 O         146.1389  142.8571  154.3251 O.2     1  UNL1       -0.2747
     34 H         147.5949  140.5254  156.4682 H       1  UNL1        0.1550
     35 C         148.6353  142.1518  154.4702 C.3     1  UNL1        0.1120
     36 C         150.0545  141.6665  154.4690 C.3     1  UNL1        0.0476
     37 C         149.6674  142.8543  153.6389 C.3     1  UNL1        0.1701
     38 F         150.0398  143.9457  152.6797 F       1  UNL1       -0.2368
     39 C         143.7569  141.2791  160.9495 C.3     1  UNL1        0.1667
     40 O         145.0635  141.3635  161.6816 O.3     1  UNL1       -0.3771
     41 H         145.7498  141.6942  161.0812 H       1  UNL1        0.2109
@<TRIPOS>BOND
     1    23    24    1
     2    24    25   ar
     3    25    26   ar
     4    26     1    1
     5     1     2   ar
     6     2     3   ar
     7     3     4   ar
     8     4     5   ar
     9     5     7    1
    10     7     8   ar
    11     8     9   ar
    12     9    10   ar
    13    10    11   ar
    14    11    12   ar
    15    12    19    1
    16    19    20    1
    17    19    21    1
    18    19    22    1
    19    12    13   ar
    20    13    14   ar
    21    14    15    1
    22    14    16   ar
    23    16    17   ar
    24    17    18    2
    25     5     6   ar
    26     6    39    1
    27    39    40    1
    28    26    27   ar
    29    27    28   ar
    30    28    31    1
    31    31    32   am
    32    32    33    2
    33    35    32    1
    34    35    36    1
    35    36    37    1
    36    37    38    1
    37    28    29   ar
    38    29    30    2
    39    29    24   ar
    40     6     1   ar
    41    37    35    1
    42    17     7   ar
    43    16    10   ar
    44    40    41    1
    45    31    34    1
