@<TRIPOS>MOLECULE
*****
 14 15 0 0 0
SMALL
GASTEIGER

@<TRIPOS>ATOM
      1 O         140.9933  142.1166  171.7691 O.2     1  UNL1       -0.2647
      2 C         140.5655  141.6575  170.4065 C.2     1  UNL1        0.3026
      3 N         140.7972  142.5352  169.2124 N.am    1  UNL1       -0.1769
      4 C         140.3695  142.0761  167.8499 C.2     1  UNL1        0.0567
      5 C         140.6012  142.9537  166.6557 C.3     1  UNL1        0.0693
      6 C         140.1735  142.4946  165.2933 C.2     1  UNL1       -0.0191
      7 C         139.5140  141.1578  165.1251 C.2     1  UNL1        0.0072
      8 C         139.2824  140.2802  166.3192 C.2     1  UNL1        0.0584
      9 CL        138.6229  138.9435  166.1509 Cl      1  UNL1       -0.0822
     10 C         139.7101  140.7393  167.6816 C.2     1  UNL1        0.0253
     11 C         139.4784  139.8617  168.8759 C.2     1  UNL1        0.0432
     12 C         139.9061  140.3208  170.2383 C.2     1  UNL1        0.1897
     13 O         139.6744  139.4432  171.4325 O.2     1  UNL1       -0.5018
     14 H         139.2625  138.6081  171.3274 H       1  UNL1        0.2924
@<TRIPOS>BOND
     1     1     2    2
     2     2     3    1
     3     3     4    2
     4     4     5    1
     5     5     6    1
     6     6     7    2
     7     7     8    1
     8     8     9    1
     9     8    10    2
    10    10    11    1
    11    11    12    2
    12    12    13    1
    13    12     2    1
    14    10     4    1
    15    13    14    1
@<TRIPOS>MOLECULE
*****
 14 15 0 0 0
SMALL
GASTEIGER

@<TRIPOS>ATOM
      1 O         140.5830  142.1410  172.2377 O.2     1  UNL1       -0.2647
      2 C         140.9124  141.9950  170.7816 C.2     1  UNL1        0.3026
      3 N         141.5773  140.7457  170.2847 N.am    1  UNL1       -0.1769
      4 C         141.9067  140.5997  168.8285 C.2     1  UNL1        0.0567
      5 C         142.5717  139.3503  168.3316 C.3     1  UNL1        0.0693
      6 C         142.9010  139.2044  166.8756 C.2     1  UNL1       -0.0191
      7 C         142.5654  140.3077  165.9164 C.2     1  UNL1        0.0072
      8 C         141.9004  141.5570  166.4133 C.2     1  UNL1        0.0584
      9 CL        141.5648  142.6604  165.4541 Cl      1  UNL1       -0.0822
     10 C         141.5711  141.7030  167.8694 C.2     1  UNL1        0.0253
     11 C         140.9061  142.9524  168.3663 C.2     1  UNL1        0.0432
     12 C         140.5767  143.0983  169.8224 C.2     1  UNL1        0.1897
     13 O         139.9117  144.3477  170.3194 O.2     1  UNL1       -0.5018
     14 H         139.7020  145.0369  169.7202 H       1  UNL1        0.2924
@<TRIPOS>BOND
     1     1     2    2
     2     2     3    1
     3     3     4    2
     4     4     5    1
     5     5     6    1
     6     6     7    2
     7     7     8    1
     8     8     9    1
     9     8    10    2
    10    10    11    1
    11    11    12    2
    12    12    13    1
    13    12     2    1
    14    10     4    1
    15    13    14    1
@<TRIPOS>MOLECULE
*****
 14 15 0 0 0
SMALL
GASTEIGER

@<TRIPOS>ATOM
      1 O         140.5242  142.2060  172.2604 O.2     1  UNL1       -0.2647
      2 C         140.9207  141.9877  170.8303 C.2     1  UNL1        0.3026
      3 N         140.0590  141.1500  169.9326 N.am    1  UNL1       -0.1769
      4 C         140.4555  140.9318  168.5024 C.2     1  UNL1        0.0567
      5 C         139.5939  140.0941  167.6047 C.3     1  UNL1        0.0693
      6 C         139.9904  139.8759  166.1747 C.2     1  UNL1       -0.0191
      7 C         141.2486  140.4953  165.6423 C.2     1  UNL1        0.0072
      8 C         142.1102  141.3329  166.5400 C.2     1  UNL1        0.0584
      9 CL        143.3683  141.9524  166.0076 Cl      1  UNL1       -0.0822
     10 C         141.7137  141.5512  167.9701 C.2     1  UNL1        0.0253
     11 C         142.5753  142.3889  168.8678 C.2     1  UNL1        0.0432
     12 C         142.1788  142.6071  170.2979 C.2     1  UNL1        0.1897
     13 O         143.0405  143.4448  171.1957 O.2     1  UNL1       -0.5018
     14 H         143.8264  143.8317  170.8631 H       1  UNL1        0.2924
@<TRIPOS>BOND
     1     1     2    2
     2     2     3    1
     3     3     4    2
     4     4     5    1
     5     5     6    1
     6     6     7    2
     7     7     8    1
     8     8     9    1
     9     8    10    2
    10    10    11    1
    11    11    12    2
    12    12    13    1
    13    12     2    1
    14    10     4    1
    15    13    14    1
@<TRIPOS>MOLECULE
*****
 14 15 0 0 0
SMALL
GASTEIGER

@<TRIPOS>ATOM
      1 O         144.5165  142.8315  169.8139 O.2     1  UNL1       -0.2647
      2 C         143.2037  142.1517  169.5596 C.2     1  UNL1        0.3026
      3 N         142.9101  141.5689  168.2090 N.am    1  UNL1       -0.1769
      4 C         141.5973  140.8891  167.9548 C.2     1  UNL1        0.0567
      5 C         141.3036  140.3063  166.6042 C.3     1  UNL1        0.0693
      6 C         139.9909  139.6266  166.3500 C.2     1  UNL1       -0.0191
      7 C         138.9718  139.5296  167.4464 C.2     1  UNL1        0.0072
      8 C         139.2655  140.1124  168.7970 C.2     1  UNL1        0.0584
      9 CL        138.2464  140.0155  169.8934 Cl      1  UNL1       -0.0822
     10 C         140.5782  140.7922  169.0512 C.2     1  UNL1        0.0253
     11 C         140.8719  141.3750  170.4018 C.2     1  UNL1        0.0432
     12 C         142.1846  142.0547  170.6560 C.2     1  UNL1        0.1897
     13 O         142.4783  142.6375  172.0066 O.2     1  UNL1       -0.5018
     14 H         141.8417  142.5770  172.6915 H       1  UNL1        0.2924
@<TRIPOS>BOND
     1     1     2    2
     2     2     3    1
     3     3     4    2
     4     4     5    1
     5     5     6    1
     6     6     7    2
     7     7     8    1
     8     8     9    1
     9     8    10    2
    10    10    11    1
    11    11    12    2
    12    12    13    1
    13    12     2    1
    14    10     4    1
    15    13    14    1
@<TRIPOS>MOLECULE
*****
 14 15 0 0 0
SMALL
GASTEIGER

@<TRIPOS>ATOM
      1 O         139.2017  146.5185  161.3137 O.2     1  UNL1       -0.2647
      2 C         139.7928  145.5715  162.3156 C.2     1  UNL1        0.3026
      3 N         141.2641  145.6080  162.6050 N.am    1  UNL1       -0.1769
      4 C         141.8552  144.6609  163.6069 C.2     1  UNL1        0.0567
      5 C         143.3265  144.6974  163.8963 C.3     1  UNL1        0.0693
      6 C         143.9175  143.7504  164.8982 C.2     1  UNL1       -0.0191
      7 C         143.0372  142.7669  165.6107 C.2     1  UNL1        0.0072
      8 C         141.5658  142.7304  165.3214 C.2     1  UNL1        0.0584
      9 CL        140.6855  141.7469  166.0339 Cl      1  UNL1       -0.0822
     10 C         140.9748  143.6774  164.3195 C.2     1  UNL1        0.0253
     11 C         139.5034  143.6409  164.0301 C.2     1  UNL1        0.0432
     12 C         138.9124  144.5880  163.0282 C.2     1  UNL1        0.1897
     13 O         137.4410  144.5515  162.7387 O.2     1  UNL1       -0.5018
     14 H         136.8911  143.9371  163.1838 H       1  UNL1        0.2924
@<TRIPOS>BOND
     1     1     2    2
     2     2     3    1
     3     3     4    2
     4     4     5    1
     5     5     6    1
     6     6     7    2
     7     7     8    1
     8     8     9    1
     9     8    10    2
    10    10    11    1
    11    11    12    2
    12    12    13    1
    13    12     2    1
    14    10     4    1
    15    13    14    1
@<TRIPOS>MOLECULE
*****
 14 15 0 0 0
SMALL
GASTEIGER

@<TRIPOS>ATOM
      1 O         137.4581  144.3482  163.1514 O.2     1  UNL1       -0.2647
      2 C         137.8134  142.8916  163.1048 C.2     1  UNL1        0.3026
      3 N         137.8435  142.0861  164.3698 N.am    1  UNL1       -0.1769
      4 C         138.1989  140.6295  164.3232 C.2     1  UNL1        0.0567
      5 C         138.2289  139.8241  165.5882 C.3     1  UNL1        0.0693
      6 C         138.5843  138.3675  165.5416 C.2     1  UNL1       -0.0191
      7 C         138.9095  137.7165  164.2300 C.2     1  UNL1        0.0072
      8 C         138.8794  138.5220  162.9650 C.2     1  UNL1        0.0584
      9 CL        139.2047  137.8709  161.6534 Cl      1  UNL1       -0.0822
     10 C         138.5241  139.9785  163.0116 C.2     1  UNL1        0.0253
     11 C         138.4940  140.7840  161.7466 C.2     1  UNL1        0.0432
     12 C         138.1387  142.2406  161.7932 C.2     1  UNL1        0.1897
     13 O         138.1086  143.0461  160.5282 O.2     1  UNL1       -0.5018
     14 H         138.3117  142.6395  159.7088 H       1  UNL1        0.2924
@<TRIPOS>BOND
     1     1     2    2
     2     2     3    1
     3     3     4    2
     4     4     5    1
     5     5     6    1
     6     6     7    2
     7     7     8    1
     8     8     9    1
     9     8    10    2
    10    10    11    1
    11    11    12    2
    12    12    13    1
    13    12     2    1
    14    10     4    1
    15    13    14    1
@<TRIPOS>MOLECULE
*****
 14 15 0 0 0
SMALL
GASTEIGER

@<TRIPOS>ATOM
      1 O         137.7656  144.0169  162.2514 O.2     1  UNL1       -0.2647
      2 C         138.3678  143.3626  163.4595 C.2     1  UNL1        0.3026
      3 N         137.9691  141.9656  163.8328 N.am    1  UNL1       -0.1769
      4 C         138.5713  141.3113  165.0409 C.2     1  UNL1        0.0567
      5 C         138.1726  139.9143  165.4142 C.3     1  UNL1        0.0693
      6 C         138.7747  139.2600  166.6222 C.2     1  UNL1       -0.0191
      7 C         139.7756  140.0028  167.4569 C.2     1  UNL1        0.0072
      8 C         140.1742  141.3998  167.0836 C.2     1  UNL1        0.0584
      9 CL        141.1750  142.1425  167.9183 Cl      1  UNL1       -0.0822
     10 C         139.5721  142.0540  165.8756 C.2     1  UNL1        0.0253
     11 C         139.9708  143.4511  165.5022 C.2     1  UNL1        0.0432
     12 C         139.3686  144.1053  164.2942 C.2     1  UNL1        0.1897
     13 O         139.7673  145.5024  163.9208 O.2     1  UNL1       -0.5018
     14 H         140.3925  145.9664  164.4422 H       1  UNL1        0.2924
@<TRIPOS>BOND
     1     1     2    2
     2     2     3    1
     3     3     4    2
     4     4     5    1
     5     5     6    1
     6     6     7    2
     7     7     8    1
     8     8     9    1
     9     8    10    2
    10    10    11    1
    11    11    12    2
    12    12    13    1
    13    12     2    1
    14    10     4    1
    15    13    14    1
@<TRIPOS>MOLECULE
*****
 14 15 0 0 0
SMALL
GASTEIGER

@<TRIPOS>ATOM
      1 O         137.7287  143.2423  161.3048 O.2     1  UNL1       -0.2647
      2 C         138.1139  142.5461  162.5765 C.2     1  UNL1        0.3026
      3 N         138.9108  143.2738  163.6182 N.am    1  UNL1       -0.1769
      4 C         139.2960  142.5776  164.8898 C.2     1  UNL1        0.0567
      5 C         140.0929  143.3054  165.9316 C.3     1  UNL1        0.0693
      6 C         140.4781  142.6092  167.2031 C.2     1  UNL1       -0.0191
      7 C         140.0663  141.1853  167.4330 C.2     1  UNL1        0.0072
      8 C         139.2694  140.4575  166.3913 C.2     1  UNL1        0.0584
      9 CL        138.8576  139.0336  166.6211 Cl      1  UNL1       -0.0822
     10 C         138.8842  141.1537  165.1197 C.2     1  UNL1        0.0253
     11 C         138.0873  140.4259  164.0779 C.2     1  UNL1        0.0432
     12 C         137.7021  141.1221  162.8063 C.2     1  UNL1        0.1897
     13 O         136.9052  140.3944  161.7645 O.2     1  UNL1       -0.5018
     14 H         136.6479  139.5049  161.9080 H       1  UNL1        0.2924
@<TRIPOS>BOND
     1     1     2    2
     2     2     3    1
     3     3     4    2
     4     4     5    1
     5     5     6    1
     6     6     7    2
     7     7     8    1
     8     8     9    1
     9     8    10    2
    10    10    11    1
    11    11    12    2
    12    12    13    1
    13    12     2    1
    14    10     4    1
    15    13    14    1
@<TRIPOS>MOLECULE
*****
 14 15 0 0 0
SMALL
GASTEIGER

@<TRIPOS>ATOM
      1 O         137.8368  143.6968  161.6999 O.2     1  UNL1       -0.2647
      2 C         138.0350  142.5328  162.6251 C.2     1  UNL1        0.3026
      3 N         138.2870  141.1642  162.0654 N.am    1  UNL1       -0.1769
      4 C         138.4852  140.0003  162.9906 C.2     1  UNL1        0.0567
      5 C         138.7372  138.6317  162.4308 C.3     1  UNL1        0.0693
      6 C         138.9354  137.4678  163.3561 C.2     1  UNL1       -0.0191
      7 C         138.8815  137.6725  164.8410 C.2     1  UNL1        0.0072
      8 C         138.6296  139.0411  165.4008 C.2     1  UNL1        0.0584
      9 CL        138.5758  139.2458  166.8858 Cl      1  UNL1       -0.0822
     10 C         138.4314  140.2050  164.4756 C.2     1  UNL1        0.0253
     11 C         138.1794  141.5737  165.0354 C.2     1  UNL1        0.0432
     12 C         137.9812  142.7376  164.1101 C.2     1  UNL1        0.1897
     13 O         137.7292  144.1063  164.6699 O.2     1  UNL1       -0.5018
     14 H         137.6956  144.2342  165.5975 H       1  UNL1        0.2924
@<TRIPOS>BOND
     1     1     2    2
     2     2     3    1
     3     3     4    2
     4     4     5    1
     5     5     6    1
     6     6     7    2
     7     7     8    1
     8     8     9    1
     9     8    10    2
    10    10    11    1
    11    11    12    2
    12    12    13    1
    13    12     2    1
    14    10     4    1
    15    13    14    1
