@<TRIPOS>MOLECULE
*****
 40 42 0 0 0
SMALL
GASTEIGER

@<TRIPOS>ATOM
      1 CA        138.1213  141.2846  157.3835 C.3     1  VAL1        0.1487
      2 N         137.8184  140.5860  158.6759 N.am    1  VAL1       -0.2970
      3 C         138.0320  140.4369  160.1530 C.2     4  PHE4        0.2412
      4 O         137.1447  139.2981  160.5606 O.2     4  PHE4       -0.2733
      5 CA        138.7048  140.8772  161.4193 C.3     4  PHE4        0.1562
      6 N         139.6566  141.7890  162.1353 N.am    4  PHE4       -0.2696
      7 C         139.6103  141.3501  163.5690 C.3     0  ACE0        0.1153
      8 C         140.6323  142.9279  162.1092 C.2     3  VAL3        0.2439
      9 O         141.0912  143.0786  163.5294 O.2     3  VAL3       -0.2731
     10 CA        141.3706  143.9888  161.3481 C.3     3  VAL3        0.1487
     11 N         141.6736  144.6874  160.0557 N.am    3  VAL3       -0.2970
     12 C         141.4600  144.8365  158.5785 C.2     2  PHE2        0.2412
     13 O         142.3473  145.9753  158.1710 O.2     2  PHE2       -0.2733
     14 CA        140.7872  144.3962  157.3122 C.3     2  PHE2        0.1562
     15 N         139.8353  143.4844  156.5962 N.am    2  PHE2       -0.2696
     16 C         139.8816  143.9233  155.1626 C.3     0  ACE0        0.1153
     17 C         138.8596  142.3455  156.6223 C.2     1  VAL1        0.2439
     18 O         138.4008  142.1948  155.2022 O.2     1  VAL1       -0.2731
     19 H         137.1635  139.8892  158.4415 H       1  VAL1        0.1499
     20 H         142.3284  145.3841  160.2900 H       3  VAL3        0.1499
     21 CG1       137.8772  139.4981  155.5129 C.3     1  VAL1        0.0022
     22 CB        137.2803  140.5847  156.3574 C.3     1  VAL1        0.0269
     23 CG2       135.8425  140.9713  156.1758 C.3     1  VAL1        0.0022
     24 CB        142.2116  144.6887  162.3742 C.3     3  VAL3        0.0269
     25 CG1       143.6679  144.3542  162.5052 C.3     3  VAL3        0.0022
     26 CG2       141.5963  145.7232  163.2692 C.3     3  VAL3        0.0022
     27 CB        138.1658  139.9664  162.4823 C.3     4  PHE4        0.0555
     28 CG        139.0485  138.9156  163.0879 C.ar    4  PHE4       -0.0200
     29 CD1       140.1662  138.3204  162.2838 C.ar    4  PHE4       -0.0042
     30 CE1       141.0489  137.2697  162.8894 C.ar    4  PHE4       -0.0003
     31 CZ        140.8139  136.8141  164.2991 C.ar    4  PHE4       -0.0000
     32 CE2       139.6963  137.4092  165.1032 C.ar    4  PHE4       -0.0003
     33 CD2       138.8135  138.4600  164.4976 C.ar    4  PHE4       -0.0042
     34 CB        141.3262  145.3070  156.2492 C.3     2  PHE2        0.0555
     35 CG        140.5518  146.5255  155.8423 C.ar    2  PHE2       -0.0200
     36 CD1       139.5115  147.0945  156.7610 C.ar    2  PHE2       -0.0042
     37 CE1       138.7371  148.3130  156.3541 C.ar    2  PHE2       -0.0003
     38 CZ        139.0030  148.9625  155.0285 C.ar    2  PHE2       -0.0000
     39 CE2       140.0433  148.3936  154.1097 C.ar    2  PHE2       -0.0003
     40 CD2       140.8177  147.1751  154.5166 C.ar    2  PHE2       -0.0042
@<TRIPOS>BOND
     1    21    22    1
     2    22    23    1
     3     1    22    1
     4     1     2    1
     5     2     3   am
     6     3     4    2
     7     3     5    1
     8     5    27    1
     9    27    28    1
    10    28    29   ar
    11    29    30   ar
    12    30    31   ar
    13    31    32   ar
    14    32    33   ar
    15     5     6    1
    16     6     7    1
    17     6     8   am
    18     8     9    2
    19     8    10    1
    20    10    24    1
    21    24    25    1
    22    24    26    1
    23    10    11    1
    24    11    12   am
    25    12    13    2
    26    12    14    1
    27    14    34    1
    28    34    35    1
    29    35    36   ar
    30    36    37   ar
    31    37    38   ar
    32    38    39   ar
    33    39    40   ar
    34    14    15    1
    35    15    16    1
    36    15    17   am
    37    17    18    2
    38    17     1    1
    39    33    28   ar
    40    40    35   ar
    41     2    19    1
    42    11    20    1
@<TRIPOS>MOLECULE
*****
 40 42 0 0 0
SMALL
GASTEIGER

@<TRIPOS>ATOM
      1 CA        141.2809  144.0348  161.3704 C.3     1  VAL1        0.1487
      2 N         141.6002  144.7297  160.0799 N.am    1  VAL1       -0.2970
      3 C         141.4202  144.8623  158.5968 C.2     4  PHE4        0.2412
      4 O         142.2917  146.0174  158.2015 O.2     4  PHE4       -0.2733
      5 CA        140.7890  144.3969  157.3180 C.3     4  PHE4        0.1562
      6 N         139.8758  143.4582  156.5866 N.am    4  PHE4       -0.2696
      7 C         139.9479  143.8866  155.1508 C.3     0  ACE0        0.1153
      8 C         138.9254  142.2980  156.5983 C.2     3  VAL3        0.2439
      9 O         138.5054  142.1256  155.1685 O.2     3  VAL3       -0.2731
     10 CA        138.1922  141.2268  157.3500 C.3     3  VAL3        0.1487
     11 N         137.8729  140.5318  158.6404 N.am    3  VAL3       -0.2970
     12 C         138.0529  140.3993  160.1236 C.2     2  PHE2        0.2412
     13 O         137.1813  139.2442  160.5188 O.2     2  PHE2       -0.2733
     14 CA        138.6840  140.8647  161.4023 C.3     2  PHE2        0.1562
     15 N         139.5972  141.8034  162.1338 N.am    2  PHE2       -0.2696
     16 C         139.5251  141.3750  163.5696 C.3     0  ACE0        0.1153
     17 C         140.5477  142.9636  162.1221 C.2     1  VAL1        0.2439
     18 O         140.9676  143.1360  163.5518 O.2     1  VAL1       -0.2731
     19 H         142.2334  145.4429  160.3245 H       1  VAL1        0.1499
     20 H         137.2397  139.8187  158.3959 H       3  VAL3        0.1499
     21 CG1       143.5365  144.4501  162.5909 C.3     1  VAL1        0.0022
     22 CB        142.0803  144.7616  162.4109 C.3     1  VAL1        0.0269
     23 CG2       141.4235  145.7999  163.2714 C.3     1  VAL1        0.0022
     24 CB        137.3927  140.5000  156.3094 C.3     3  VAL3        0.0269
     25 CG1       138.0257  139.3995  155.5106 C.3     3  VAL3        0.0022
     26 CG2       135.9603  140.8737  156.0677 C.3     3  VAL3        0.0022
     27 CB        141.3338  145.3111  156.2609 C.3     4  PHE4        0.0555
     28 CG        140.5578  146.5264  155.8478 C.ar    4  PHE4       -0.0200
     29 CD1       140.8399  147.1840  154.5294 C.ar    4  PHE4       -0.0042
     30 CE1       140.0639  148.3994  154.1163 C.ar    4  PHE4       -0.0003
     31 CZ        139.0058  148.9572  155.0215 C.ar    4  PHE4       -0.0000
     32 CE2       138.7238  148.2996  156.3398 C.ar    4  PHE4       -0.0003
     33 CD2       139.4998  147.0842  156.7530 C.ar    4  PHE4       -0.0042
     34 CB        138.1392  139.9505  162.4594 C.3     2  PHE2        0.0555
     35 CG        139.0255  138.9142  163.0843 C.ar    2  PHE2       -0.0200
     36 CD1       138.7917  138.4834  164.5020 C.ar    2  PHE2       -0.0042
     37 CE1       139.6780  137.4471  165.1268 C.ar    2  PHE2       -0.0003
     38 CZ        140.7982  136.8416  164.3341 C.ar    2  PHE2       -0.0000
     39 CE2       141.0321  137.2724  162.9164 C.ar    2  PHE2       -0.0003
     40 CD2       140.1458  138.3087  162.2915 C.ar    2  PHE2       -0.0042
@<TRIPOS>BOND
     1    21    22    1
     2    22    23    1
     3     1    22    1
     4     1     2    1
     5     2     3   am
     6     3     4    2
     7     3     5    1
     8     5    27    1
     9    27    28    1
    10    28    29   ar
    11    29    30   ar
    12    30    31   ar
    13    31    32   ar
    14    32    33   ar
    15     5     6    1
    16     6     7    1
    17     6     8   am
    18     8     9    2
    19     8    10    1
    20    10    24    1
    21    24    25    1
    22    24    26    1
    23    10    11    1
    24    11    12   am
    25    12    13    2
    26    12    14    1
    27    14    34    1
    28    34    35    1
    29    35    36   ar
    30    36    37   ar
    31    37    38   ar
    32    38    39   ar
    33    39    40   ar
    34    14    15    1
    35    15    16    1
    36    15    17   am
    37    17    18    2
    38    17     1    1
    39    33    28   ar
    40    40    35   ar
    41     2    19    1
    42    11    20    1
@<TRIPOS>MOLECULE
*****
 40 42 0 0 0
SMALL
GASTEIGER

@<TRIPOS>ATOM
      1 CA        142.6965  139.6164  157.0678 C.3     1  VAL1        0.1487
      2 N         142.7440  138.8363  158.3481 N.am    1  VAL1       -0.2970
      3 C         142.7473  138.7996  159.8476 C.2     4  PHE4        0.2412
      4 O         142.8344  137.3442  160.2002 O.2     4  PHE4       -0.2733
      5 CA        142.7056  139.5163  161.1646 C.3     4  PHE4        0.1562
      6 N         142.6300  140.7944  161.9462 N.am    4  PHE4       -0.2696
      7 C         142.6563  140.3716  163.3852 C.3     0  ACE0        0.1153
      8 C         142.5407  142.2912  161.9830 C.2     3  VAL3        0.2439
      9 O         142.5208  142.6433  163.4410 O.2     3  VAL3       -0.2731
     10 CA        142.4617  143.6059  161.2651 C.3     3  VAL3        0.1487
     11 N         142.4142  144.3861  159.9848 N.am    3  VAL3       -0.2970
     12 C         142.4108  144.4227  158.4853 C.2     2  PHE2        0.2412
     13 O         142.3237  145.8781  158.1327 O.2     2  PHE2       -0.2733
     14 CA        142.4526  143.7060  157.1682 C.3     2  PHE2        0.1562
     15 N         142.5282  142.4279  156.3866 N.am    2  PHE2       -0.2696
     16 C         142.5019  142.8508  154.9477 C.3     0  ACE0        0.1153
     17 C         142.6175  140.9311  156.3499 C.2     1  VAL1        0.2439
     18 O         142.6373  140.5790  154.8919 O.2     1  VAL1       -0.2731
     19 H         142.8000  137.8935  158.0701 H       1  VAL1        0.1499
     20 H         142.3581  145.3288  160.2628 H       3  VAL3        0.1499
     21 CG1       141.4964  137.9355  155.4916 C.3     1  VAL1        0.0022
     22 CB        142.7572  138.5838  155.9814 C.3     1  VAL1        0.0269
     23 CG2       144.0788  138.1997  155.3849 C.3     1  VAL1        0.0022
     24 CB        142.4009  144.6385  162.3514 C.3     3  VAL3        0.0269
     25 CG1       141.0867  145.2574  162.7252 C.3     3  VAL3        0.0022
     26 CG2       143.6544  145.0521  163.0640 C.3     3  VAL3        0.0022
     27 CB        142.7711  138.4320  162.1990 C.3     4  PHE4        0.0555
     28 CG        141.5310  138.0243  162.9378 C.ar    4  PHE4       -0.0200
     29 CD1       141.6205  137.5887  164.3704 C.ar    4  PHE4       -0.0042
     30 CE1       140.3804  137.1811  165.1093 C.ar    4  PHE4       -0.0003
     31 CZ        139.0508  137.2091  164.4156 C.ar    4  PHE4       -0.0000
     32 CE2       138.9612  137.6447  162.9831 C.ar    4  PHE4       -0.0003
     33 CD2       140.2013  138.0523  162.2442 C.ar    4  PHE4       -0.0042
     34 CB        142.3871  144.7904  156.1339 C.3     2  PHE2        0.0555
     35 CG        141.0626  145.3780  155.7462 C.ar    2  PHE2       -0.0200
     36 CD1       141.0080  146.6850  155.0120 C.ar    2  PHE2       -0.0042
     37 CE1       139.6835  147.2727  154.6243 C.ar    2  PHE2       -0.0003
     38 CZ        138.4136  146.5534  154.9707 C.ar    2  PHE2       -0.0000
     39 CE2       138.4681  145.2466  155.7049 C.ar    2  PHE2       -0.0003
     40 CD2       139.7927  144.6588  156.0926 C.ar    2  PHE2       -0.0042
@<TRIPOS>BOND
     1    21    22    1
     2    22    23    1
     3     1    22    1
     4     1     2    1
     5     2     3   am
     6     3     4    2
     7     3     5    1
     8     5    27    1
     9    27    28    1
    10    28    29   ar
    11    29    30   ar
    12    30    31   ar
    13    31    32   ar
    14    32    33   ar
    15     5     6    1
    16     6     7    1
    17     6     8   am
    18     8     9    2
    19     8    10    1
    20    10    24    1
    21    24    25    1
    22    24    26    1
    23    10    11    1
    24    11    12   am
    25    12    13    2
    26    12    14    1
    27    14    34    1
    28    34    35    1
    29    35    36   ar
    30    36    37   ar
    31    37    38   ar
    32    38    39   ar
    33    39    40   ar
    34    14    15    1
    35    15    16    1
    36    15    17   am
    37    17    18    2
    38    17     1    1
    39    33    28   ar
    40    40    35   ar
    41     2    19    1
    42    11    20    1
@<TRIPOS>MOLECULE
*****
 40 42 0 0 0
SMALL
GASTEIGER

@<TRIPOS>ATOM
      1 CA        142.4383  143.6228  161.2422 C.3     1  VAL1        0.1487
      2 N         142.3931  144.4091  159.9655 N.am    1  VAL1       -0.2970
      3 C         142.3920  144.4529  158.4662 C.2     4  PHE4        0.2412
      4 O         142.3061  145.9101  158.1205 O.2     4  PHE4       -0.2733
      5 CA        142.4354  143.7426  157.1458 C.3     4  PHE4        0.1562
      6 N         142.5116  142.4682  156.3582 N.am    4  PHE4       -0.2696
      7 C         142.4876  142.8980  154.9212 C.3     0  ACE0        0.1153
      8 C         142.6002  140.9716  156.3144 C.2     3  VAL3        0.2439
      9 O         142.6221  140.6265  154.8548 O.2     3  VAL3       -0.2731
     10 CA        142.6775  139.6534  157.0261 C.3     3  VAL3        0.1487
     11 N         142.7227  138.8671  158.3027 N.am    3  VAL3       -0.2970
     12 C         142.7238  138.8233  159.8020 C.2     2  PHE2        0.2412
     13 O         142.8096  137.3661  160.1478 O.2     2  PHE2       -0.2733
     14 CA        142.6804  139.5336  161.1225 C.3     2  PHE2        0.1562
     15 N         142.6042  140.8080  161.9100 N.am    2  PHE2       -0.2696
     16 C         142.6282  140.3782  163.3470 C.3     0  ACE0        0.1153
     17 C         142.5156  142.3047  161.9539 C.2     1  VAL1        0.2439
     18 O         142.4937  142.6498  163.4135 O.2     1  VAL1       -0.2731
     19 H         142.3371  145.3506  160.2480 H       1  VAL1        0.1499
     20 H         142.7787  137.9256  158.0203 H       3  VAL3        0.1499
     21 CG1       141.0653  145.2836  162.6936 C.3     1  VAL1        0.0022
     22 CB        142.3764  144.6502  162.3333 C.3     1  VAL1        0.0269
     23 CG2       143.6256  145.0442  163.0643 C.3     1  VAL1        0.0022
     24 CB        142.7394  138.6260  155.9349 C.3     3  VAL3        0.0269
     25 CG1       141.4744  138.0237  155.3992 C.3     3  VAL3        0.0022
     26 CG2       144.0663  138.2009  155.3795 C.3     3  VAL3        0.0022
     27 CB        142.3720  144.8319  156.1166 C.3     4  PHE4        0.0555
     28 CG        141.0482  145.4212  155.7287 C.ar    4  PHE4       -0.0200
     29 CD1       140.9933  146.7489  155.0329 C.ar    4  PHE4       -0.0042
     30 CE1       139.6695  147.3381  154.6450 C.ar    4  PHE4       -0.0003
     31 CZ        138.4007  146.5997  154.9530 C.ar    4  PHE4       -0.0000
     32 CE2       138.4556  145.2720  155.6489 C.ar    4  PHE4       -0.0003
     33 CD2       139.7794  144.6827  156.0367 C.ar    4  PHE4       -0.0042
     34 CB        142.7438  138.4443  162.1517 C.3     2  PHE2        0.0555
     35 CG        141.5008  138.0282  162.8809 C.ar    2  PHE2       -0.0200
     36 CD1       141.5903  137.5353  164.2949 C.ar    2  PHE2       -0.0042
     37 CE1       140.3473  137.1192  165.0241 C.ar    2  PHE2       -0.0003
     38 CZ        139.0148  137.1960  164.3395 C.ar    2  PHE2       -0.0000
     39 CE2       138.9254  137.6889  162.9256 C.ar    2  PHE2       -0.0003
     40 CD2       140.1684  138.1050  162.1963 C.ar    2  PHE2       -0.0042
@<TRIPOS>BOND
     1    21    22    1
     2    22    23    1
     3     1    22    1
     4     1     2    1
     5     2     3   am
     6     3     4    2
     7     3     5    1
     8     5    27    1
     9    27    28    1
    10    28    29   ar
    11    29    30   ar
    12    30    31   ar
    13    31    32   ar
    14    32    33   ar
    15     5     6    1
    16     6     7    1
    17     6     8   am
    18     8     9    2
    19     8    10    1
    20    10    24    1
    21    24    25    1
    22    24    26    1
    23    10    11    1
    24    11    12   am
    25    12    13    2
    26    12    14    1
    27    14    34    1
    28    34    35    1
    29    35    36   ar
    30    36    37   ar
    31    37    38   ar
    32    38    39   ar
    33    39    40   ar
    34    14    15    1
    35    15    16    1
    36    15    17   am
    37    17    18    2
    38    17     1    1
    39    33    28   ar
    40    40    35   ar
    41     2    19    1
    42    11    20    1
@<TRIPOS>MOLECULE
*****
 40 42 0 0 0
SMALL
GASTEIGER

@<TRIPOS>ATOM
      1 CA        142.8182  141.6059  157.2008 C.3     1  VAL1        0.1487
      2 N         142.2655  142.9858  156.9997 N.am    1  VAL1       -0.2970
      3 C         141.1353  143.8867  156.5986 C.2     4  PHE4        0.2412
      4 O         141.6659  145.2783  156.7774 O.2     4  PHE4       -0.2733
      5 CA        139.7305  144.0674  156.1048 C.3     4  PHE4        0.1562
      6 N         138.4274  143.4792  155.6508 N.am    4  PHE4       -0.2696
      7 C         137.5563  144.6599  155.3390 C.3     0  ACE0        0.1153
      8 C         137.5753  142.2800  155.3582 C.2     3  VAL3        0.2439
      9 O         136.2630  142.8399  154.8949 O.2     3  VAL3       -0.2731
     10 CA        137.4023  140.7909  155.3053 C.3     3  VAL3        0.1487
     11 N         137.9551  139.4110  155.5064 N.am    3  VAL3       -0.2970
     12 C         139.0852  138.5101  155.9076 C.2     2  PHE2        0.2412
     13 O         138.5547  137.1185  155.7288 O.2     2  PHE2       -0.2733
     14 CA        140.4901  138.3294  156.4014 C.3     2  PHE2        0.1562
     15 N         141.7932  138.9176  156.8554 N.am    2  PHE2       -0.2696
     16 C         142.6643  137.7369  157.1671 C.3     0  ACE0        0.1153
     17 C         142.6453  140.1168  157.1480 C.2     1  VAL1        0.2439
     18 O         143.9576  139.5569  157.6113 O.2     1  VAL1       -0.2731
     19 H         142.9977  143.5930  157.2534 H       1  VAL1        0.1499
     20 H         137.2229  138.8038  155.2528 H       3  VAL3        0.1499
     21 CG1       144.4706  142.1166  159.1396 C.3     1  VAL1        0.0022
     22 CB        144.2199  141.8168  157.6914 C.3     1  VAL1        0.0269
     23 CG2       145.3710  141.7280  156.7339 C.3     1  VAL1        0.0022
     24 CB        136.0006  140.5800  154.8147 C.3     3  VAL3        0.0269
     25 CG1       135.7307  140.4611  153.3440 C.3     3  VAL3        0.0022
     26 CG2       134.8689  140.4880  155.7948 C.3     3  VAL3        0.0022
     27 CB        139.5339  145.5524  156.0280 C.3     4  PHE4        0.0555
     28 CG        140.0055  146.3101  154.8225 C.ar    4  PHE4       -0.0200
     29 CD1       139.8001  147.7938  154.7414 C.ar    4  PHE4       -0.0042
     30 CE1       140.2718  148.5515  153.5358 C.ar    4  PHE4       -0.0003
     31 CZ        140.9487  147.8255  152.4112 C.ar    4  PHE4       -0.0000
     32 CE2       141.1540  146.3419  152.4922 C.ar    4  PHE4       -0.0003
     33 CD2       140.6824  145.5841  153.6979 C.ar    4  PHE4       -0.0042
     34 CB        140.6867  136.8444  156.4781 C.3     2  PHE2        0.0555
     35 CG        141.0958  136.0778  155.2554 C.ar    2  PHE2       -0.0200
     36 CD1       141.2678  134.5893  155.3261 C.ar    2  PHE2       -0.0042
     37 CE1       141.6769  133.8227  154.1034 C.ar    2  PHE2       -0.0003
     38 CZ        141.9141  134.5446  152.8101 C.ar    2  PHE2       -0.0000
     39 CE2       141.7421  136.0330  152.7394 C.ar    2  PHE2       -0.0003
     40 CD2       141.3330  136.7996  153.9621 C.ar    2  PHE2       -0.0042
@<TRIPOS>BOND
     1    21    22    1
     2    22    23    1
     3     1    22    1
     4     1     2    1
     5     2     3   am
     6     3     4    2
     7     3     5    1
     8     5    27    1
     9    27    28    1
    10    28    29   ar
    11    29    30   ar
    12    30    31   ar
    13    31    32   ar
    14    32    33   ar
    15     5     6    1
    16     6     7    1
    17     6     8   am
    18     8     9    2
    19     8    10    1
    20    10    24    1
    21    24    25    1
    22    24    26    1
    23    10    11    1
    24    11    12   am
    25    12    13    2
    26    12    14    1
    27    14    34    1
    28    34    35    1
    29    35    36   ar
    30    36    37   ar
    31    37    38   ar
    32    38    39   ar
    33    39    40   ar
    34    14    15    1
    35    15    16    1
    36    15    17   am
    37    17    18    2
    38    17     1    1
    39    33    28   ar
    40    40    35   ar
    41     2    19    1
    42    11    20    1
@<TRIPOS>MOLECULE
*****
 40 42 0 0 0
SMALL
GASTEIGER

@<TRIPOS>ATOM
      1 CA        142.3246  139.4315  160.3401 C.3     1  VAL1        0.1487
      2 N         142.1187  140.6156  161.2376 N.am    1  VAL1       -0.2970
      3 C         141.7544  142.0591  161.4207 C.2     4  PHE4        0.2412
      4 O         141.8718  142.3050  162.8958 O.2     4  PHE4       -0.2733
      5 CA        141.3294  143.3753  160.8404 C.3     4  PHE4        0.1562
      6 N         140.9575  144.2116  159.6519 N.am    4  PHE4       -0.2696
      7 C         140.6624  145.5717  160.2113 C.3     0  ACE0        0.1153
      8 C         140.7384  144.3438  158.1739 C.2     3  VAL3        0.2439
      9 O         140.3298  145.7724  157.9682 O.2     3  VAL3       -0.2731
     10 CA        140.7307  143.7365  156.8023 C.3     3  VAL3        0.1487
     11 N         140.9367  142.5524  155.9048 N.am    3  VAL3       -0.2970
     12 C         141.3009  141.1090  155.7217 C.2     2  PHE2        0.2412
     13 O         141.1835  140.8630  154.2466 O.2     2  PHE2       -0.2733
     14 CA        141.7259  139.7927  156.3020 C.3     2  PHE2        0.1562
     15 N         142.0978  138.9565  157.4905 N.am    2  PHE2       -0.2696
     16 C         142.3930  137.5963  156.9311 C.3     0  ACE0        0.1153
     17 C         142.3169  138.8243  158.9685 C.2     1  VAL1        0.2439
     18 O         142.7255  137.3957  159.1742 O.2     1  VAL1       -0.2731
     19 H         142.3195  140.2866  162.1435 H       1  VAL1        0.1499
     20 H         140.7359  142.8814  154.9989 H       3  VAL3        0.1499
     21 CG1       144.1859  137.9517  161.3867 C.3     1  VAL1        0.0022
     22 CB        142.7371  138.3173  161.2557 C.3     1  VAL1        0.0269
     23 CG2       141.7008  137.5687  162.0403 C.3     1  VAL1        0.0022
     24 CB        140.3182  144.8507  155.8867 C.3     3  VAL3        0.0269
     25 CG1       138.8641  145.0979  155.6140 C.3     3  VAL3        0.0022
     26 CG2       141.3598  145.7177  155.2438 C.3     3  VAL3        0.0022
     27 CB        141.2268  144.3026  162.0150 C.3     4  PHE4        0.0555
     28 CG        140.0259  144.2467  162.9119 C.ar    4  PHE4       -0.0200
     29 CD1       140.0896  144.8393  164.2885 C.ar    4  PHE4       -0.0042
     30 CE1       138.8887  144.7834  165.1854 C.ar    4  PHE4       -0.0003
     31 CZ        137.6239  144.1350  164.7059 C.ar    4  PHE4       -0.0000
     32 CE2       137.5601  143.5424  163.3294 C.ar    4  PHE4       -0.0003
     33 CD2       138.7611  143.5983  162.4324 C.ar    4  PHE4       -0.0042
     34 CB        141.8286  138.8654  155.1274 C.3     2  PHE2        0.0555
     35 CG        140.5872  138.2746  154.5276 C.ar    2  PHE2       -0.0200
     36 CD1       140.6208  137.7104  153.1381 C.ar    2  PHE2       -0.0042
     37 CE1       139.3794  137.1196  152.5383 C.ar    2  PHE2       -0.0003
     38 CZ        138.1044  137.0929  153.3279 C.ar    2  PHE2       -0.0000
     39 CE2       138.0706  137.6571  154.7173 C.ar    2  PHE2       -0.0003
     40 CD2       139.3121  138.2480  155.3172 C.ar    2  PHE2       -0.0042
@<TRIPOS>BOND
     1    21    22    1
     2    22    23    1
     3     1    22    1
     4     1     2    1
     5     2     3   am
     6     3     4    2
     7     3     5    1
     8     5    27    1
     9    27    28    1
    10    28    29   ar
    11    29    30   ar
    12    30    31   ar
    13    31    32   ar
    14    32    33   ar
    15     5     6    1
    16     6     7    1
    17     6     8   am
    18     8     9    2
    19     8    10    1
    20    10    24    1
    21    24    25    1
    22    24    26    1
    23    10    11    1
    24    11    12   am
    25    12    13    2
    26    12    14    1
    27    14    34    1
    28    34    35    1
    29    35    36   ar
    30    36    37   ar
    31    37    38   ar
    32    38    39   ar
    33    39    40   ar
    34    14    15    1
    35    15    16    1
    36    15    17   am
    37    17    18    2
    38    17     1    1
    39    33    28   ar
    40    40    35   ar
    41     2    19    1
    42    11    20    1
@<TRIPOS>MOLECULE
*****
 40 42 0 0 0
SMALL
GASTEIGER

@<TRIPOS>ATOM
      1 CA        140.7610  143.7412  156.7823 C.3     1  VAL1        0.1487
      2 N         140.9654  142.5548  155.8874 N.am    1  VAL1       -0.2970
      3 C         141.3232  141.1093  155.7081 C.2     4  PHE4        0.2412
      4 O         141.2120  140.8619  154.2328 O.2     4  PHE4       -0.2733
      5 CA        141.7386  139.7916  156.2924 C.3     4  PHE4        0.1562
      6 N         142.1003  138.9552  157.4839 N.am    4  PHE4       -0.2696
      7 C         142.3913  137.5928  156.9277 C.3     0  ACE0        0.1153
      8 C         142.3113  138.8239  158.9631 C.2     3  VAL3        0.2439
      9 O         142.7115  137.3936  159.1727 O.2     3  VAL3       -0.2731
     10 CA        142.3151  139.4330  160.3339 C.3     3  VAL3        0.1487
     11 N         142.1107  140.6194  161.2288 N.am    3  VAL3       -0.2970
     12 C         141.7529  142.0649  161.4081 C.2     2  PHE2        0.2412
     13 O         141.8640  142.3123  162.8834 O.2     2  PHE2       -0.2733
     14 CA        141.3374  143.3825  160.8238 C.3     2  PHE2        0.1562
     15 N         140.9758  144.2190  159.6323 N.am    2  PHE2       -0.2696
     16 C         140.6848  145.5814  160.1884 C.3     0  ACE0        0.1153
     17 C         140.7648  144.3502  158.1531 C.2     1  VAL1        0.2439
     18 O         140.3645  145.7806  157.9434 O.2     1  VAL1       -0.2731
     19 H         140.7709  142.8836  154.9801 H       1  VAL1        0.1499
     20 H         142.3052  140.2906  162.1361 H       3  VAL3        0.1499
     21 CG1       141.4082  145.7128  155.2190 C.3     1  VAL1        0.0022
     22 CB        140.3588  144.8562  155.8631 C.3     1  VAL1        0.0269
     23 CG2       138.9071  145.1146  155.5880 C.3     1  VAL1        0.0022
     24 CB        142.7173  138.3180  161.2531 C.3     3  VAL3        0.0269
     25 CG1       141.6742  137.5820  162.0406 C.3     3  VAL3        0.0022
     26 CG2       144.1626  137.9390  161.3847 C.3     3  VAL3        0.0022
     27 CB        141.8425  138.8623  155.1196 C.3     4  PHE4        0.0555
     28 CG        140.6013  138.2755  154.5154 C.ar    4  PHE4       -0.0200
     29 CD1       140.6392  137.7063  153.1281 C.ar    4  PHE4       -0.0042
     30 CE1       139.3980  137.1196  152.5239 C.ar    4  PHE4       -0.0003
     31 CZ        138.1188  137.1020  153.3070 C.ar    4  PHE4       -0.0000
     32 CE2       138.0807  137.6712  154.6942 C.ar    4  PHE4       -0.0003
     33 CD2       139.3220  138.2580  155.2985 C.ar    4  PHE4       -0.0042
     34 CB        141.2336  144.3119  161.9966 C.3     2  PHE2        0.0555
     35 CG        140.0342  144.2541  162.8954 C.ar    2  PHE2       -0.0200
     36 CD1       138.7689  143.6057  162.4170 C.ar    2  PHE2       -0.0042
     37 CE1       137.5695  143.5479  163.3159 C.ar    2  PHE2       -0.0003
     38 CZ        137.6352  144.1385  164.6931 C.ar    2  PHE2       -0.0000
     39 CE2       138.9004  144.7869  165.1716 C.ar    2  PHE2       -0.0003
     40 CD2       140.0999  144.8447  164.2727 C.ar    2  PHE2       -0.0042
@<TRIPOS>BOND
     1    21    22    1
     2    22    23    1
     3     1    22    1
     4     1     2    1
     5     2     3   am
     6     3     4    2
     7     3     5    1
     8     5    27    1
     9    27    28    1
    10    28    29   ar
    11    29    30   ar
    12    30    31   ar
    13    31    32   ar
    14    32    33   ar
    15     5     6    1
    16     6     7    1
    17     6     8   am
    18     8     9    2
    19     8    10    1
    20    10    24    1
    21    24    25    1
    22    24    26    1
    23    10    11    1
    24    11    12   am
    25    12    13    2
    26    12    14    1
    27    14    34    1
    28    34    35    1
    29    35    36   ar
    30    36    37   ar
    31    37    38   ar
    32    38    39   ar
    33    39    40   ar
    34    14    15    1
    35    15    16    1
    36    15    17   am
    37    17    18    2
    38    17     1    1
    39    33    28   ar
    40    40    35   ar
    41     2    19    1
    42    11    20    1
@<TRIPOS>MOLECULE
*****
 40 42 0 0 0
SMALL
GASTEIGER

@<TRIPOS>ATOM
      1 CA        143.0382  140.9179  157.9788 C.3     1  VAL1        0.1487
      2 N         142.6988  142.2765  157.4413 N.am    1  VAL1       -0.2970
      3 C         142.0368  143.6119  157.6096 C.2     4  PHE4        0.2412
      4 O         142.3174  144.3480  156.3331 O.2     4  PHE4       -0.2733
      5 CA        141.2295  144.5663  158.4387 C.3     4  PHE4        0.1562
      6 N         140.4932  144.8839  159.7064 N.am    4  PHE4       -0.2696
      7 C         139.9748  146.2785  159.5153 C.3     0  ACE0        0.1153
      8 C         140.0253  144.4797  161.0729 C.2     3  VAL3        0.2439
      9 O         139.2647  145.6650  161.5893 O.2     3  VAL3       -0.2731
     10 CA        139.9511  143.4619  162.1724 C.3     3  VAL3        0.1487
     11 N         140.2905  142.1032  162.7098 N.am    3  VAL3       -0.2970
     12 C         140.9525  140.7679  162.5415 C.2     2  PHE2        0.2412
     13 O         140.6719  140.0317  163.8180 O.2     2  PHE2       -0.2733
     14 CA        141.7598  139.8134  161.7125 C.3     2  PHE2        0.1562
     15 N         142.4961  139.4959  160.4447 N.am    2  PHE2       -0.2696
     16 C         143.0145  138.1013  160.6359 C.3     0  ACE0        0.1153
     17 C         142.9640  139.9001  159.0782 C.2     1  VAL1        0.2439
     18 O         143.7246  138.7148  158.5618 O.2     1  VAL1       -0.2731
     19 H         143.1079  142.3060  156.5463 H       1  VAL1        0.1499
     20 H         139.8814  142.0738  163.6048 H       3  VAL3        0.1499
     21 CG1       143.1969  139.2302  156.0098 C.3     1  VAL1        0.0022
     22 CB        143.8373  140.2594  156.8934 C.3     1  VAL1        0.0269
     23 CG2       145.2766  140.6302  156.6916 C.3     1  VAL1        0.0022
     24 CB        139.1520  144.1203  163.2577 C.3     3  VAL3        0.0269
     25 CG1       137.6546  144.0355  163.2433 C.3     3  VAL3        0.0022
     26 CG2       139.8505  144.8636  164.3575 C.3     3  VAL3        0.0022
     27 CB        141.0922  145.7965  157.5914 C.3     4  PHE4        0.0555
     28 CG        139.9698  145.9044  156.6022 C.ar    4  PHE4       -0.0200
     29 CD1       139.1052  144.7125  156.3158 C.ar    4  PHE4       -0.0042
     30 CE1       137.9828  144.8204  155.3266 C.ar    4  PHE4       -0.0003
     31 CZ        137.7250  146.1202  154.6237 C.ar    4  PHE4       -0.0000
     32 CE2       138.5895  147.3120  154.9100 C.ar    4  PHE4       -0.0003
     33 CD2       139.7120  147.2042  155.8992 C.ar    4  PHE4       -0.0042
     34 CB        141.8971  138.5833  162.5598 C.3     2  PHE2        0.0555
     35 CG        142.8418  138.5767  163.7249 C.ar    2  PHE2       -0.0200
     36 CD1       144.2242  139.1389  163.5728 C.ar    2  PHE2       -0.0042
     37 CE1       145.1688  139.1323  164.7379 C.ar    2  PHE2       -0.0003
     38 CZ        144.7312  138.5635  166.0551 C.ar    2  PHE2       -0.0000
     39 CE2       143.3489  138.0013  166.2072 C.ar    2  PHE2       -0.0003
     40 CD2       142.4042  138.0079  165.0421 C.ar    2  PHE2       -0.0042
@<TRIPOS>BOND
     1    21    22    1
     2    22    23    1
     3     1    22    1
     4     1     2    1
     5     2     3   am
     6     3     4    2
     7     3     5    1
     8     5    27    1
     9    27    28    1
    10    28    29   ar
    11    29    30   ar
    12    30    31   ar
    13    31    32   ar
    14    32    33   ar
    15     5     6    1
    16     6     7    1
    17     6     8   am
    18     8     9    2
    19     8    10    1
    20    10    24    1
    21    24    25    1
    22    24    26    1
    23    10    11    1
    24    11    12   am
    25    12    13    2
    26    12    14    1
    27    14    34    1
    28    34    35    1
    29    35    36   ar
    30    36    37   ar
    31    37    38   ar
    32    38    39   ar
    33    39    40   ar
    34    14    15    1
    35    15    16    1
    36    15    17   am
    37    17    18    2
    38    17     1    1
    39    33    28   ar
    40    40    35   ar
    41     2    19    1
    42    11    20    1
@<TRIPOS>MOLECULE
*****
 40 42 0 0 0
SMALL
GASTEIGER

@<TRIPOS>ATOM
      1 CA        138.1721  141.3054  157.5059 C.3     1  VAL1        0.1487
      2 N         137.8598  140.6349  158.8109 N.am    1  VAL1       -0.2970
      3 C         138.0812  140.5013  160.2883 C.2     4  PHE4        0.2412
      4 O         137.1645  139.3951  160.7198 O.2     4  PHE4       -0.2733
      5 CA        138.7770  140.9402  161.5426 C.3     4  PHE4        0.1562
      6 N         139.7610  141.8342  162.2374 N.am    4  PHE4       -0.2696
      7 C         139.7138  141.4179  163.6778 C.3     0  ACE0        0.1153
      8 C         140.7692  142.9435  162.1867 C.2     3  VAL3        0.2439
      9 O         141.2440  143.1016  163.6008 O.2     3  VAL3       -0.2731
     10 CA        141.5317  143.9712  161.4040 C.3     3  VAL3        0.1487
     11 N         141.8441  144.6416  160.0990 N.am    3  VAL3       -0.2970
     12 C         141.6227  144.7752  158.6216 C.2     2  PHE2        0.2412
     13 O         142.5394  145.8815  158.1901 O.2     2  PHE2       -0.2733
     14 CA        140.9269  144.3363  157.3673 C.3     2  PHE2        0.1562
     15 N         139.9429  143.4423  156.6725 N.am    2  PHE2       -0.2696
     16 C         139.9901  143.8586  155.2321 C.3     0  ACE0        0.1153
     17 C         138.9347  142.3330  156.7232 C.2     1  VAL1        0.2439
     18 O         138.4598  142.1749  155.3091 O.2     1  VAL1       -0.2731
     19 H         137.1829  139.9543  158.5921 H       1  VAL1        0.1499
     20 H         142.5210  145.3222  160.3178 H       3  VAL3        0.1499
     21 CG1       135.8547  140.9878  156.3751 C.3     1  VAL1        0.0022
     22 CB        137.3026  140.6154  156.4970 C.3     1  VAL1        0.0269
     23 CG2       137.8810  139.5530  155.6100 C.3     1  VAL1        0.0022
     24 CB        142.4013  144.6611  162.4129 C.3     3  VAL3        0.0269
     25 CG1       143.8679  144.3528  162.4749 C.3     3  VAL3        0.0022
     26 CG2       141.8042  145.6595  163.3599 C.3     3  VAL3        0.0022
     27 CB        138.2206  140.0612  162.6233 C.3     4  PHE4        0.0555
     28 CG        139.0564  138.9543  163.1943 C.ar    4  PHE4       -0.0200
     29 CD1       138.7520  138.4125  164.5596 C.ar    4  PHE4       -0.0042
     30 CE1       139.5878  137.3056  165.1306 C.ar    4  PHE4       -0.0003
     31 CZ        140.7280  136.7404  164.3364 C.ar    4  PHE4       -0.0000
     32 CE2       141.0323  137.2822  162.9712 C.ar    4  PHE4       -0.0003
     33 CD2       140.1965  138.3891  162.4001 C.ar    4  PHE4       -0.0042
     34 CB        141.4833  145.2153  156.2866 C.3     2  PHE2        0.0555
     35 CG        142.5789  144.7076  155.3968 C.ar    2  PHE2       -0.0200
     36 CD1       142.8893  145.4151  154.1110 C.ar    2  PHE2       -0.0042
     37 CE1       143.9849  144.9074  153.2212 C.ar    2  PHE2       -0.0003
     38 CZ        144.7703  143.6923  153.6171 C.ar    2  PHE2       -0.0000
     39 CE2       144.4600  142.9849  154.9029 C.ar    2  PHE2       -0.0003
     40 CD2       143.3643  143.4926  155.7928 C.ar    2  PHE2       -0.0042
@<TRIPOS>BOND
     1    21    22    1
     2    22    23    1
     3     1    22    1
     4     1     2    1
     5     2     3   am
     6     3     4    2
     7     3     5    1
     8     5    27    1
     9    27    28    1
    10    28    29   ar
    11    29    30   ar
    12    30    31   ar
    13    31    32   ar
    14    32    33   ar
    15     5     6    1
    16     6     7    1
    17     6     8   am
    18     8     9    2
    19     8    10    1
    20    10    24    1
    21    24    25    1
    22    24    26    1
    23    10    11    1
    24    11    12   am
    25    12    13    2
    26    12    14    1
    27    14    34    1
    28    34    35    1
    29    35    36   ar
    30    36    37   ar
    31    37    38   ar
    32    38    39   ar
    33    39    40   ar
    34    14    15    1
    35    15    16    1
    36    15    17   am
    37    17    18    2
    38    17     1    1
    39    33    28   ar
    40    40    35   ar
    41     2    19    1
    42    11    20    1
