@<TRIPOS>MOLECULE
*****
 44 48 0 0 0
SMALL
GASTEIGER

@<TRIPOS>ATOM
      1 C         143.6972  141.4680  163.8758 C.ar    1  UNL1        0.0852
      2 C         143.4736  140.2456  163.0357 C.ar    1  UNL1        0.0221
      3 C         143.6614  140.3127  161.5489 C.ar    1  UNL1        0.0508
      4 C         143.4378  139.0902  160.7089 C.ar    1  UNL1        0.1353
      5 N         143.6255  139.1573  159.2222 N.ar    1  UNL1       -0.2089
      6 C         144.0369  140.4467  158.5756 C.ar    1  UNL1        0.2000
      7 N         144.2604  141.6691  159.4157 N.ar    1  UNL1       -0.2238
      8 C         144.0727  141.6021  160.9024 C.ar    1  UNL1        0.0888
      9 C         144.2963  142.8245  161.7424 C.ar    1  UNL1        0.0574
     10 C         144.1086  142.7575  163.2291 C.ar    1  UNL1        0.1534
     11 O         140.9401  141.2072  165.0293 O.2     1  UNL1       -0.2697
     12 C         142.1309  141.2706  165.9392 C.2     1  UNL1        0.2520
     13 N         143.5095  141.4010  165.3624 N.am    1  UNL1       -0.2779
     14 H         144.2910  141.4426  165.9596 H       1  UNL1        0.1553
     15 C         141.9432  141.2035  167.4259 C.ar    1  UNL1        0.0872
     16 C         141.1739  142.2791  168.1340 C.ar    1  UNL1        0.0820
     17 C         140.9862  142.2121  169.6206 C.ar    1  UNL1        0.2903
     18 C         141.5678  141.0696  170.3993 C.ar    1  UNL1        0.0776
     19 C         142.3371  139.9940  169.6912 C.ar    1  UNL1        0.0361
     20 C         142.5248  140.0610  168.2046 C.ar    1  UNL1        0.1449
     21 F         143.2942  138.9855  167.4965 F       1  UNL1       -0.2040
     22 N         140.2168  143.2877  170.3287 N.pl3   1  UNL1        0.0809
     23 O         138.9697  142.9422  171.0872 O.2     1  UNL1        0.0415
     24 O         140.6945  144.7086  170.2781 O.co2   1  UNL1       -0.5760
     25 N         143.0264  137.8008  161.3555 N.pl3   1  UNL1       -0.2978
     26 H         143.5423  136.9793  161.1874 H       1  UNL1        0.1536
     27 C         141.8291  137.7630  162.2583 C.ar    1  UNL1        0.0504
     28 C         142.0033  137.4986  163.7245 C.ar    1  UNL1        0.0170
     29 C         140.8060  137.4609  164.6272 C.ar    1  UNL1        0.0318
     30 C         139.4345  137.6875  164.0639 C.ar    1  UNL1        0.1507
     31 F         138.2371  137.6498  164.9666 F       1  UNL1       -0.2033
     32 C         139.2602  137.9519  162.5976 C.ar    1  UNL1        0.0863
     33 CL        137.8886  138.1786  162.0342 Cl      1  UNL1       -0.0799
     34 C         140.4575  137.9897  161.6948 C.ar    1  UNL1        0.0283
     35 O         144.3321  143.9799  164.0692 O.3     1  UNL1       -0.4741
     36 C         143.4648  145.1889  163.8799 C.3     1  UNL1        0.2069
     37 C         141.9715  145.0470  163.8726 C.3     1  UNL1        0.0646
     38 C         141.2338  144.9488  162.5702 C.3     1  UNL1        0.0761
     39 N         140.1691  143.9081  162.3880 N.3     1  UNL1       -0.2683
     40 C         138.7786  144.1617  162.8905 C.3     1  UNL1        0.1046
     41 C         137.7138  143.1210  162.7082 C.3     1  UNL1        0.1595
     42 O         138.0395  141.8267  162.0236 O.3     1  UNL1       -0.3508
     43 C         139.4299  141.5731  161.5212 C.3     1  UNL1        0.1595
     44 C         140.4947  142.6138  161.7034 C.3     1  UNL1        0.1046
@<TRIPOS>UNITY_ATOM_ATTR
22 1
charge 1
24 1
charge -1
@<TRIPOS>BOND
     1    11    12    2
     2    12    13   am
     3    13     1    1
     4     1     2   ar
     5     2     3   ar
     6     3     4   ar
     7     4    25    1
     8    25    27    1
     9    27    28   ar
    10    28    29   ar
    11    29    30   ar
    12    30    31    1
    13    30    32   ar
    14    32    33    1
    15    32    34   ar
    16     4     5   ar
    17     5     6   ar
    18     6     7   ar
    19     7     8   ar
    20     8     9   ar
    21     9    10   ar
    22    10    35    1
    23    35    36    1
    24    36    37    1
    25    37    38    1
    26    38    39    1
    27    39    40    1
    28    40    41    1
    29    41    42    1
    30    42    43    1
    31    43    44    1
    32    12    15    1
    33    15    16   ar
    34    16    17   ar
    35    17    22    1
    36    22    23    2
    37    22    24    1
    38    17    18   ar
    39    18    19   ar
    40    19    20   ar
    41    20    21    1
    42    10     1   ar
    43    44    39    1
    44    20    15   ar
    45     8     3   ar
    46    34    27   ar
    47    13    14    1
    48    25    26    1
@<TRIPOS>MOLECULE
*****
 44 48 0 0 0
SMALL
GASTEIGER

@<TRIPOS>ATOM
      1 C         141.3905  143.9247  163.4726 C.ar    1  UNL1        0.0852
      2 C         142.5395  143.5300  162.5929 C.ar    1  UNL1        0.0221
      3 C         142.4455  143.7169  161.1075 C.ar    1  UNL1        0.0508
      4 C         143.5945  143.3222  160.2277 C.ar    1  UNL1        0.1353
      5 N         143.5004  143.5090  158.7424 N.ar    1  UNL1       -0.2089
      6 C         142.2574  144.0905  158.1368 C.ar    1  UNL1        0.2000
      7 N         141.1084  144.4852  159.0166 N.ar    1  UNL1       -0.2238
      8 C         141.2024  144.2984  160.5019 C.ar    1  UNL1        0.0888
      9 C         140.0534  144.6930  161.3817 C.ar    1  UNL1        0.0574
     10 C         140.1475  144.5062  162.8670 C.ar    1  UNL1        0.1534
     11 O         141.2585  141.1681  164.6491 O.2     1  UNL1       -0.2697
     12 C         141.4185  142.3595  165.5462 C.2     1  UNL1        0.2520
     13 N         141.4845  143.7378  164.9580 N.am    1  UNL1       -0.2779
     14 H         141.5896  144.5198  165.5468 H       1  UNL1        0.1553
     15 C         141.5125  142.1727  167.0316 C.ar    1  UNL1        0.0872
     16 C         140.6554  142.9960  167.9467 C.ar    1  UNL1        0.0820
     17 C         140.7494  142.8093  169.4321 C.ar    1  UNL1        0.2903
     18 C         141.7005  141.7992  170.0022 C.ar    1  UNL1        0.0776
     19 C         142.5577  140.9759  169.0871 C.ar    1  UNL1        0.0361
     20 C         142.4637  141.1627  167.6017 C.ar    1  UNL1        0.1449
     21 F         143.3208  140.3394  166.6866 F       1  UNL1       -0.2040
     22 N         139.8923  143.6326  170.3472 N.pl3   1  UNL1        0.0809
     23 O         140.0485  145.1240  170.3811 O.2     1  UNL1        0.0415
     24 O         138.8789  142.9644  171.2285 O.co2   1  UNL1       -0.5760
     25 N         144.8375  142.7406  160.8333 N.pl3   1  UNL1       -0.2978
     26 H         145.7215  143.0813  160.5653 H       1  UNL1        0.1536
     27 C         144.7337  141.6400  161.8471 C.ar    1  UNL1        0.0504
     28 C         145.4484  141.7602  163.1604 C.ar    1  UNL1        0.0170
     29 C         145.3446  140.6595  164.1742 C.ar    1  UNL1        0.0318
     30 C         144.5261  139.4388  163.8748 C.ar    1  UNL1        0.1507
     31 F         144.4223  138.3381  164.8886 F       1  UNL1       -0.2033
     32 C         143.8114  139.3185  162.5614 C.ar    1  UNL1        0.0863
     33 CL        142.9929  138.0978  162.2620 Cl      1  UNL1       -0.0799
     34 C         143.9152  140.4192  161.5476 C.ar    1  UNL1        0.0283
     35 O         138.9985  144.9009  163.7468 O.3     1  UNL1       -0.4741
     36 C         137.7638  144.0505  163.7946 C.3     1  UNL1        0.2069
     37 C         137.8317  142.6605  164.3543 C.3     1  UNL1        0.0646
     38 C         137.7622  141.4774  163.4347 C.3     1  UNL1        0.0761
     39 N         138.1440  140.1156  163.9345 N.3     1  UNL1       -0.2683
     40 C         138.5415  139.0443  162.9627 C.3     1  UNL1        0.1046
     41 C         138.9232  137.6825  163.4624 C.3     1  UNL1        0.1595
     42 O         138.9075  137.3920  164.9340 O.3     1  UNL1       -0.3508
     43 C         138.5100  138.4633  165.9057 C.3     1  UNL1        0.1595
     44 C         138.1282  139.8251  165.4060 C.3     1  UNL1        0.1046
@<TRIPOS>UNITY_ATOM_ATTR
22 1
charge 1
24 1
charge -1
@<TRIPOS>BOND
     1    11    12    2
     2    12    13   am
     3    13     1    1
     4     1     2   ar
     5     2     3   ar
     6     3     4   ar
     7     4    25    1
     8    25    27    1
     9    27    28   ar
    10    28    29   ar
    11    29    30   ar
    12    30    31    1
    13    30    32   ar
    14    32    33    1
    15    32    34   ar
    16     4     5   ar
    17     5     6   ar
    18     6     7   ar
    19     7     8   ar
    20     8     9   ar
    21     9    10   ar
    22    10    35    1
    23    35    36    1
    24    36    37    1
    25    37    38    1
    26    38    39    1
    27    39    40    1
    28    40    41    1
    29    41    42    1
    30    42    43    1
    31    43    44    1
    32    12    15    1
    33    15    16   ar
    34    16    17   ar
    35    17    22    1
    36    22    23    2
    37    22    24    1
    38    17    18   ar
    39    18    19   ar
    40    19    20   ar
    41    20    21    1
    42    10     1   ar
    43    44    39    1
    44    20    15   ar
    45     8     3   ar
    46    34    27   ar
    47    13    14    1
    48    25    26    1
@<TRIPOS>MOLECULE
*****
 44 48 0 0 0
SMALL
GASTEIGER

@<TRIPOS>ATOM
      1 C         138.5892  140.0885  163.6878 C.ar    1  UNL1        0.0852
      2 C         138.5913  141.2687  162.7620 C.ar    1  UNL1        0.0221
      3 C         138.5985  141.0570  161.2770 C.ar    1  UNL1        0.0508
      4 C         138.6006  142.2372  160.3512 C.ar    1  UNL1        0.1353
      5 N         138.6079  142.0255  158.8662 N.ar    1  UNL1       -0.2089
      6 C         138.6130  140.6337  158.3071 C.ar    1  UNL1        0.2000
      7 N         138.6109  139.4535  159.2329 N.ar    1  UNL1       -0.2238
      8 C         138.6037  139.6651  160.7178 C.ar    1  UNL1        0.0888
      9 C         138.6016  138.4849  161.6437 C.ar    1  UNL1        0.0574
     10 C         138.5944  138.6966  163.1286 C.ar    1  UNL1        0.1534
     11 O         141.0340  141.1520  165.0633 O.2     1  UNL1       -0.2697
     12 C         139.8044  140.8319  165.8605 C.2     1  UNL1        0.2520
     13 N         138.5820  140.3001  165.1727 N.am    1  UNL1       -0.2779
     14 H         137.7749  140.0901  165.6960 H       1  UNL1        0.1553
     15 C         139.7971  141.0435  167.3455 C.ar    1  UNL1        0.0872
     16 C         140.4092  142.2822  167.9296 C.ar    1  UNL1        0.0820
     17 C         140.4020  142.4939  169.4145 C.ar    1  UNL1        0.2903
     18 C         139.7826  141.4669  170.3154 C.ar    1  UNL1        0.0776
     19 C         139.1705  140.2283  169.7314 C.ar    1  UNL1        0.0361
     20 C         139.1777  140.0166  168.2464 C.ar    1  UNL1        0.1449
     21 F         138.5656  138.7779  167.6624 F       1  UNL1       -0.2040
     22 N         141.0141  143.7325  169.9985 N.pl3   1  UNL1        0.0809
     23 O         140.1664  144.9464  170.2387 O.2     1  UNL1        0.0415
     24 O         142.4739  143.7572  170.3424 O.co2   1  UNL1       -0.5760
     25 N         138.5955  143.6291  160.9104 N.pl3   1  UNL1       -0.2978
     26 H         137.8339  144.2275  160.7342 H       1  UNL1        0.1536
     27 C         139.7508  144.1091  161.7379 C.ar    1  UNL1        0.0504
     28 C         139.5043  144.9632  162.9460 C.ar    1  UNL1        0.0170
     29 C         140.6596  145.4433  163.7736 C.ar    1  UNL1        0.0318
     30 C         142.0614  145.0692  163.3929 C.ar    1  UNL1        0.1507
     31 F         143.2168  145.5492  164.2205 F       1  UNL1       -0.2033
     32 C         142.3080  144.2150  162.1847 C.ar    1  UNL1        0.0863
     33 CL        143.7098  143.8410  161.8041 Cl      1  UNL1       -0.0799
     34 C         141.1527  143.7350  161.3572 C.ar    1  UNL1        0.0283
     35 O         138.5923  137.5164  164.0544 O.3     1  UNL1       -0.4741
     36 C         139.8617  137.0919  164.7313 C.3     1  UNL1        0.2069
     37 C         141.1804  137.2901  164.0444 C.3     1  UNL1        0.0646
     38 C         142.2963  137.9986  164.7534 C.3     1  UNL1        0.0761
     39 N         143.2340  138.8804  163.9831 N.3     1  UNL1       -0.2683
     40 C         143.1559  138.9314  162.4860 C.3     1  UNL1        0.1046
     41 C         144.0935  139.8132  161.7157 C.3     1  UNL1        0.1595
     42 O         145.1093  140.6439  162.4425 O.3     1  UNL1       -0.3508
     43 C         145.1873  140.5928  163.9396 C.3     1  UNL1        0.1595
     44 C         144.2497  139.7111  164.7099 C.3     1  UNL1        0.1046
@<TRIPOS>UNITY_ATOM_ATTR
22 1
charge 1
24 1
charge -1
@<TRIPOS>BOND
     1    11    12    2
     2    12    13   am
     3    13     1    1
     4     1     2   ar
     5     2     3   ar
     6     3     4   ar
     7     4    25    1
     8    25    27    1
     9    27    28   ar
    10    28    29   ar
    11    29    30   ar
    12    30    31    1
    13    30    32   ar
    14    32    33    1
    15    32    34   ar
    16     4     5   ar
    17     5     6   ar
    18     6     7   ar
    19     7     8   ar
    20     8     9   ar
    21     9    10   ar
    22    10    35    1
    23    35    36    1
    24    36    37    1
    25    37    38    1
    26    38    39    1
    27    39    40    1
    28    40    41    1
    29    41    42    1
    30    42    43    1
    31    43    44    1
    32    12    15    1
    33    15    16   ar
    34    16    17   ar
    35    17    22    1
    36    22    23    2
    37    22    24    1
    38    17    18   ar
    39    18    19   ar
    40    19    20   ar
    41    20    21    1
    42    10     1   ar
    43    44    39    1
    44    20    15   ar
    45     8     3   ar
    46    34    27   ar
    47    13    14    1
    48    25    26    1
@<TRIPOS>MOLECULE
*****
 44 48 0 0 0
SMALL
GASTEIGER

@<TRIPOS>ATOM
      1 C         140.9377  144.0401  163.7292 C.ar    1  UNL1        0.0852
      2 C         141.9521  143.7724  162.6571 C.ar    1  UNL1        0.0221
      3 C         141.6836  144.2043  161.2459 C.ar    1  UNL1        0.0508
      4 C         142.6980  143.9367  160.1738 C.ar    1  UNL1        0.1353
      5 N         142.4296  144.3685  158.7626 N.ar    1  UNL1       -0.2089
      6 C         141.1468  145.0681  158.4235 C.ar    1  UNL1        0.2000
      7 N         140.1324  145.3357  159.4956 N.ar    1  UNL1       -0.2238
      8 C         140.4008  144.9039  160.9068 C.ar    1  UNL1        0.0888
      9 C         139.3864  145.1716  161.9788 C.ar    1  UNL1        0.0574
     10 C         139.6548  144.7397  163.3900 C.ar    1  UNL1        0.1534
     11 O         141.1337  141.1211  164.3930 O.2     1  UNL1       -0.2697
     12 C         141.3041  142.1487  165.4722 C.2     1  UNL1        0.2520
     13 N         141.2061  143.6083  165.1403 N.am    1  UNL1       -0.2779
     14 H         141.3179  144.2828  165.8487 H       1  UNL1        0.1553
     15 C         141.5725  141.7169  166.8835 C.ar    1  UNL1        0.0872
     16 C         140.9309  142.4469  168.0261 C.ar    1  UNL1        0.0820
     17 C         141.1992  142.0151  169.4372 C.ar    1  UNL1        0.2903
     18 C         142.1092  140.8534  169.7059 C.ar    1  UNL1        0.0776
     19 C         142.7508  140.1234  168.5633 C.ar    1  UNL1        0.0361
     20 C         142.4824  140.5551  167.1521 C.ar    1  UNL1        0.1449
     21 F         143.1240  139.8251  166.0096 F       1  UNL1       -0.2040
     22 N         140.5576  142.7451  170.5798 N.pl3   1  UNL1        0.0809
     23 O         139.9329  144.0900  170.3543 O.2     1  UNL1        0.0415
     24 O         140.5408  142.1302  171.9478 O.co2   1  UNL1       -0.5760
     25 N         143.9809  143.2371  160.5130 N.pl3   1  UNL1       -0.2978
     26 H         144.8185  143.7500  160.5799 H       1  UNL1        0.1536
     27 C         143.9874  141.7559  160.7501 C.ar    1  UNL1        0.0504
     28 C         144.4856  141.2074  162.0542 C.ar    1  UNL1        0.0170
     29 C         144.4921  139.7262  162.2913 C.ar    1  UNL1        0.0318
     30 C         144.0005  138.7937  161.2243 C.ar    1  UNL1        0.1507
     31 F         144.0071  137.3126  161.4614 F       1  UNL1       -0.2033
     32 C         143.5024  139.3422  159.9200 C.ar    1  UNL1        0.0863
     33 CL        143.0108  138.4097  158.8530 Cl      1  UNL1       -0.0799
     34 C         143.4958  140.8234  159.6829 C.ar    1  UNL1        0.0283
     35 O         138.6404  145.0074  164.4621 O.3     1  UNL1       -0.4741
     36 C         137.5108  144.0455  164.6828 C.3     1  UNL1        0.2069
     37 C         137.7624  142.5678  164.6276 C.3     1  UNL1        0.0646
     38 C         137.4184  141.7941  163.3895 C.3     1  UNL1        0.0761
     39 N         137.8449  140.3622  163.2571 N.3     1  UNL1       -0.2683
     40 C         138.3175  139.6058  164.4633 C.3     1  UNL1        0.1046
     41 C         138.7441  138.1739  164.3309 C.3     1  UNL1        0.1595
     42 O         138.6981  137.4983  162.9924 O.3     1  UNL1       -0.3508
     43 C         138.2256  138.2546  161.7863 C.3     1  UNL1        0.1595
     44 C         137.7990  139.6866  161.9187 C.3     1  UNL1        0.1046
@<TRIPOS>UNITY_ATOM_ATTR
22 1
charge 1
24 1
charge -1
@<TRIPOS>BOND
     1    11    12    2
     2    12    13   am
     3    13     1    1
     4     1     2   ar
     5     2     3   ar
     6     3     4   ar
     7     4    25    1
     8    25    27    1
     9    27    28   ar
    10    28    29   ar
    11    29    30   ar
    12    30    31    1
    13    30    32   ar
    14    32    33    1
    15    32    34   ar
    16     4     5   ar
    17     5     6   ar
    18     6     7   ar
    19     7     8   ar
    20     8     9   ar
    21     9    10   ar
    22    10    35    1
    23    35    36    1
    24    36    37    1
    25    37    38    1
    26    38    39    1
    27    39    40    1
    28    40    41    1
    29    41    42    1
    30    42    43    1
    31    43    44    1
    32    12    15    1
    33    15    16   ar
    34    16    17   ar
    35    17    22    1
    36    22    23    2
    37    22    24    1
    38    17    18   ar
    39    18    19   ar
    40    19    20   ar
    41    20    21    1
    42    10     1   ar
    43    44    39    1
    44    20    15   ar
    45     8     3   ar
    46    34    27   ar
    47    13    14    1
    48    25    26    1
@<TRIPOS>MOLECULE
*****
 44 48 0 0 0
SMALL
GASTEIGER

@<TRIPOS>ATOM
      1 C         140.5373  143.6138  163.4603 C.ar    1  UNL1        0.0852
      2 C         139.5107  142.7045  162.8527 C.ar    1  UNL1        0.0221
      3 C         139.2853  142.7126  161.3697 C.ar    1  UNL1        0.0508
      4 C         138.2587  141.8033  160.7621 C.ar    1  UNL1        0.1353
      5 N         138.0333  141.8114  159.2792 N.ar    1  UNL1       -0.2089
      6 C         138.8346  142.7288  158.4038 C.ar    1  UNL1        0.2000
      7 N         139.8613  143.6381  159.0114 N.ar    1  UNL1       -0.2238
      8 C         140.0866  143.6300  160.4943 C.ar    1  UNL1        0.0888
      9 C         141.1133  144.5393  161.1019 C.ar    1  UNL1        0.0574
     10 C         141.3387  144.5312  162.5848 C.ar    1  UNL1        0.1534
     11 O         141.6496  141.1682  164.7952 O.2     1  UNL1       -0.2697
     12 C         141.3188  142.3829  165.6106 C.2     1  UNL1        0.2520
     13 N         140.7627  143.6057  164.9432 N.am    1  UNL1       -0.2779
     14 H         140.5456  144.4029  165.4784 H       1  UNL1        0.1553
     15 C         141.5442  142.3748  167.0936 C.ar    1  UNL1        0.0872
     16 C         140.3745  142.2982  168.0296 C.ar    1  UNL1        0.0820
     17 C         140.5998  142.2902  169.5125 C.ar    1  UNL1        0.2903
     18 C         141.9948  142.3587  170.0595 C.ar    1  UNL1        0.0776
     19 C         143.1645  142.4352  169.1236 C.ar    1  UNL1        0.0361
     20 C         142.9392  142.4433  167.6406 C.ar    1  UNL1        0.1449
     21 F         144.1089  142.5198  166.7047 F       1  UNL1       -0.2040
     22 N         139.4301  142.2136  170.4484 N.pl3   1  UNL1        0.0809
     23 O         139.1171  143.3680  171.3536 O.2     1  UNL1        0.0415
     24 O         138.5734  140.9827  170.4791 O.co2   1  UNL1       -0.5760
     25 N         137.4573  140.8859  161.6375 N.pl3   1  UNL1       -0.2978
     26 H         136.4751  140.9510  161.6501 H       1  UNL1        0.1536
     27 C         138.1527  139.8694  162.4938 C.ar    1  UNL1        0.0504
     28 C         138.9063  138.7404  161.8555 C.ar    1  UNL1        0.0170
     29 C         139.6016  137.7239  162.7118 C.ar    1  UNL1        0.0318
     30 C         139.5433  137.8364  164.2064 C.ar    1  UNL1        0.1507
     31 F         140.2387  136.8199  165.0627 F       1  UNL1       -0.2033
     32 C         138.7897  138.9654  164.8448 C.ar    1  UNL1        0.0863
     33 CL        138.7315  139.0779  166.3394 Cl      1  UNL1       -0.0799
     34 C         138.0944  139.9819  163.9885 C.ar    1  UNL1        0.0283
     35 O         142.3653  145.4405  163.1924 O.3     1  UNL1       -0.4741
     36 C         143.8134  145.0492  163.1827 C.3     1  UNL1        0.2069
     37 C         144.2003  143.6033  163.2799 C.3     1  UNL1        0.0646
     38 C         144.5117  142.8250  162.0360 C.3     1  UNL1        0.0761
     39 N         144.3575  141.3329  162.0266 N.3     1  UNL1       -0.2683
     40 C         143.9881  140.6252  160.7566 C.3     1  UNL1        0.1046
     41 C         143.8339  139.1332  160.7472 C.3     1  UNL1        0.1595
     42 O         144.0491  138.3489  162.0076 O.3     1  UNL1       -0.3508
     43 C         144.4185  139.0567  163.2775 C.3     1  UNL1        0.1595
     44 C         144.5726  140.5487  163.2869 C.3     1  UNL1        0.1046
@<TRIPOS>UNITY_ATOM_ATTR
22 1
charge 1
24 1
charge -1
@<TRIPOS>BOND
     1    11    12    2
     2    12    13   am
     3    13     1    1
     4     1     2   ar
     5     2     3   ar
     6     3     4   ar
     7     4    25    1
     8    25    27    1
     9    27    28   ar
    10    28    29   ar
    11    29    30   ar
    12    30    31    1
    13    30    32   ar
    14    32    33    1
    15    32    34   ar
    16     4     5   ar
    17     5     6   ar
    18     6     7   ar
    19     7     8   ar
    20     8     9   ar
    21     9    10   ar
    22    10    35    1
    23    35    36    1
    24    36    37    1
    25    37    38    1
    26    38    39    1
    27    39    40    1
    28    40    41    1
    29    41    42    1
    30    42    43    1
    31    43    44    1
    32    12    15    1
    33    15    16   ar
    34    16    17   ar
    35    17    22    1
    36    22    23    2
    37    22    24    1
    38    17    18   ar
    39    18    19   ar
    40    19    20   ar
    41    20    21    1
    42    10     1   ar
    43    44    39    1
    44    20    15   ar
    45     8     3   ar
    46    34    27   ar
    47    13    14    1
    48    25    26    1
@<TRIPOS>MOLECULE
*****
 44 48 0 0 0
SMALL
GASTEIGER

@<TRIPOS>ATOM
      1 C         139.5477  141.9905  163.2523 C.ar    1  UNL1        0.0852
      2 C         140.4729  143.0210  162.6760 C.ar    1  UNL1        0.0221
      3 C         140.3133  143.4587  161.2502 C.ar    1  UNL1        0.0508
      4 C         141.2385  144.4892  160.6739 C.ar    1  UNL1        0.1353
      5 N         141.0790  144.9269  159.2481 N.ar    1  UNL1       -0.2089
      6 C         139.9942  144.3341  158.3986 C.ar    1  UNL1        0.2000
      7 N         139.0689  143.3036  158.9748 N.ar    1  UNL1       -0.2238
      8 C         139.2285  142.8659  160.4006 C.ar    1  UNL1        0.0888
      9 C         138.3033  141.8355  160.9768 C.ar    1  UNL1        0.0574
     10 C         138.4628  141.3978  162.4026 C.ar    1  UNL1        0.1534
     11 O         142.1507  140.8235  164.1808 O.2     1  UNL1       -0.2697
     12 C         141.0087  140.9693  165.1423 C.2     1  UNL1        0.2520
     13 N         139.7072  141.5528  164.6780 N.am    1  UNL1       -0.2779
     14 H         138.9577  141.6486  165.3092 H       1  UNL1        0.1553
     15 C         141.1683  140.5316  166.5682 C.ar    1  UNL1        0.0872
     16 C         140.1129  140.8698  167.5790 C.ar    1  UNL1        0.0820
     17 C         140.2724  140.4321  169.0048 C.ar    1  UNL1        0.2903
     18 C         141.4872  139.6563  169.4198 C.ar    1  UNL1        0.0776
     19 C         142.5425  139.3181  168.4089 C.ar    1  UNL1        0.0361
     20 C         142.3831  139.7557  166.9831 C.ar    1  UNL1        0.1449
     21 F         143.4384  139.4175  165.9722 F       1  UNL1       -0.2040
     22 N         139.2170  140.7703  170.0157 N.pl3   1  UNL1        0.0809
     23 O         138.1768  139.7538  170.3827 O.2     1  UNL1        0.0415
     24 O         139.2019  142.1250  170.6596 O.co2   1  UNL1       -0.5760
     25 N         142.3234  145.0820  161.5236 N.pl3   1  UNL1       -0.2978
     26 H         142.3917  146.0590  161.6238 H       1  UNL1        0.1536
     27 C         143.3041  144.1861  162.2204 C.ar    1  UNL1        0.0504
     28 C         144.0215  143.1171  161.4508 C.ar    1  UNL1        0.0170
     29 C         145.0023  142.2212  162.1477 C.ar    1  UNL1        0.0318
     30 C         145.2656  142.3945  163.6142 C.ar    1  UNL1        0.1507
     31 F         146.2463  141.4986  164.3110 F       1  UNL1       -0.2033
     32 C         144.5482  143.4636  164.3839 C.ar    1  UNL1        0.0863
     33 CL        144.8115  143.6368  165.8503 Cl      1  UNL1       -0.0799
     34 C         143.5674  144.3594  163.6870 C.ar    1  UNL1        0.0283
     35 O         137.5376  140.3673  162.9789 O.3     1  UNL1       -0.4741
     36 C         137.9897  138.9431  163.1104 C.3     1  UNL1        0.2069
     37 C         138.9526  138.3670  162.1150 C.3     1  UNL1        0.0646
     38 C         140.3665  138.0748  162.5217 C.3     1  UNL1        0.0761
     39 N         141.5066  138.5852  161.6912 N.3     1  UNL1       -0.2683
     40 C         142.8834  138.0204  161.8795 C.3     1  UNL1        0.1046
     41 C         144.0235  138.5308  161.0490 C.3     1  UNL1        0.1595
     42 O         143.7867  139.6059  160.0301 O.3     1  UNL1       -0.3508
     43 C         142.4099  140.1706  159.8418 C.3     1  UNL1        0.1595
     44 C         141.2698  139.6602  160.6723 C.3     1  UNL1        0.1046
@<TRIPOS>UNITY_ATOM_ATTR
22 1
charge 1
24 1
charge -1
@<TRIPOS>BOND
     1    11    12    2
     2    12    13   am
     3    13     1    1
     4     1     2   ar
     5     2     3   ar
     6     3     4   ar
     7     4    25    1
     8    25    27    1
     9    27    28   ar
    10    28    29   ar
    11    29    30   ar
    12    30    31    1
    13    30    32   ar
    14    32    33    1
    15    32    34   ar
    16     4     5   ar
    17     5     6   ar
    18     6     7   ar
    19     7     8   ar
    20     8     9   ar
    21     9    10   ar
    22    10    35    1
    23    35    36    1
    24    36    37    1
    25    37    38    1
    26    38    39    1
    27    39    40    1
    28    40    41    1
    29    41    42    1
    30    42    43    1
    31    43    44    1
    32    12    15    1
    33    15    16   ar
    34    16    17   ar
    35    17    22    1
    36    22    23    2
    37    22    24    1
    38    17    18   ar
    39    18    19   ar
    40    19    20   ar
    41    20    21    1
    42    10     1   ar
    43    44    39    1
    44    20    15   ar
    45     8     3   ar
    46    34    27   ar
    47    13    14    1
    48    25    26    1
@<TRIPOS>MOLECULE
*****
 44 48 0 0 0
SMALL
GASTEIGER

@<TRIPOS>ATOM
      1 C         140.9224  139.2094  163.9568 C.ar    1  UNL1        0.0852
      2 C         139.7752  139.7108  163.1307 C.ar    1  UNL1        0.0221
      3 C         139.7527  139.4651  161.6510 C.ar    1  UNL1        0.0508
      4 C         138.6055  139.9665  160.8249 C.ar    1  UNL1        0.1353
      5 N         138.5829  139.7209  159.3454 N.ar    1  UNL1       -0.2089
      6 C         139.7076  138.9738  158.6920 C.ar    1  UNL1        0.2000
      7 N         140.8548  138.4724  159.5181 N.ar    1  UNL1       -0.2238
      8 C         140.8774  138.7180  160.9976 C.ar    1  UNL1        0.0888
      9 C         142.0246  138.2166  161.8238 C.ar    1  UNL1        0.0574
     10 C         142.0471  138.4623  163.3033 C.ar    1  UNL1        0.1534
     11 O         140.9642  142.0179  165.0106 O.2     1  UNL1       -0.2697
     12 C         140.9659  140.8593  165.9632 C.2     1  UNL1        0.2520
     13 N         140.9450  139.4551  165.4363 N.am    1  UNL1       -0.2779
     14 H         140.9461  138.6946  166.0616 H       1  UNL1        0.1553
     15 C         140.9884  141.1049  167.4429 C.ar    1  UNL1        0.0872
     16 C         142.1008  141.9048  168.0534 C.ar    1  UNL1        0.0820
     17 C         142.1234  142.1504  169.5330 C.ar    1  UNL1        0.2903
     18 C         141.0336  141.5962  170.4020 C.ar    1  UNL1        0.0776
     19 C         139.9212  140.7964  169.7914 C.ar    1  UNL1        0.0361
     20 C         139.8986  140.5508  168.3118 C.ar    1  UNL1        0.1449
     21 F         138.7862  139.7509  167.7012 F       1  UNL1       -0.2040
     22 N         143.2358  142.9503  170.1436 N.pl3   1  UNL1        0.0809
     23 O         142.9206  144.1117  171.0389 O.2     1  UNL1        0.0415
     24 O         144.6635  142.5886  169.8589 O.co2   1  UNL1       -0.5760
     25 N         137.4808  140.7136  161.4784 N.pl3   1  UNL1       -0.2978
     26 H         136.5492  140.4361  161.3224 H       1  UNL1        0.1536
     27 C         137.7756  141.8836  162.3696 C.ar    1  UNL1        0.0504
     28 C         137.3450  141.8593  163.8062 C.ar    1  UNL1        0.0170
     29 C         137.6397  143.0293  164.6974 C.ar    1  UNL1        0.0318
     30 C         138.3650  144.2236  164.1520 C.ar    1  UNL1        0.1507
     31 F         138.6598  145.3936  165.0432 F       1  UNL1       -0.2033
     32 C         138.7957  144.2479  162.7153 C.ar    1  UNL1        0.0863
     33 CL        139.5210  145.4422  162.1698 Cl      1  UNL1       -0.0799
     34 C         138.5009  143.0779  161.8241 C.ar    1  UNL1        0.0283
     35 O         143.1943  137.9609  164.1294 O.3     1  UNL1       -0.4741
     36 C         144.0988  138.9340  164.8259 C.3     1  UNL1        0.2069
     37 C         144.6845  140.0882  164.0678 C.3     1  UNL1        0.0646
     38 C         144.4730  141.4907  164.5557 C.3     1  UNL1        0.0761
     39 N         143.9346  142.5357  163.6240 N.3     1  UNL1       -0.2683
     40 C         143.3134  142.1299  162.3203 C.3     1  UNL1        0.1046
     41 C         142.7751  143.1749  161.3886 C.3     1  UNL1        0.1595
     42 O         142.8579  144.6258  161.7606 O.3     1  UNL1       -0.3508
     43 C         143.4790  145.0315  163.0642 C.3     1  UNL1        0.1595
     44 C         144.0174  143.9865  163.9960 C.3     1  UNL1        0.1046
@<TRIPOS>UNITY_ATOM_ATTR
22 1
charge 1
24 1
charge -1
@<TRIPOS>BOND
     1    11    12    2
     2    12    13   am
     3    13     1    1
     4     1     2   ar
     5     2     3   ar
     6     3     4   ar
     7     4    25    1
     8    25    27    1
     9    27    28   ar
    10    28    29   ar
    11    29    30   ar
    12    30    31    1
    13    30    32   ar
    14    32    33    1
    15    32    34   ar
    16     4     5   ar
    17     5     6   ar
    18     6     7   ar
    19     7     8   ar
    20     8     9   ar
    21     9    10   ar
    22    10    35    1
    23    35    36    1
    24    36    37    1
    25    37    38    1
    26    38    39    1
    27    39    40    1
    28    40    41    1
    29    41    42    1
    30    42    43    1
    31    43    44    1
    32    12    15    1
    33    15    16   ar
    34    16    17   ar
    35    17    22    1
    36    22    23    2
    37    22    24    1
    38    17    18   ar
    39    18    19   ar
    40    19    20   ar
    41    20    21    1
    42    10     1   ar
    43    44    39    1
    44    20    15   ar
    45     8     3   ar
    46    34    27   ar
    47    13    14    1
    48    25    26    1
@<TRIPOS>MOLECULE
*****
 44 48 0 0 0
SMALL
GASTEIGER

@<TRIPOS>ATOM
      1 C         139.2045  141.2273  163.5205 C.ar    1  UNL1        0.0852
      2 C         139.3555  142.3597  162.5485 C.ar    1  UNL1        0.0221
      3 C         139.0012  142.1610  161.1045 C.ar    1  UNL1        0.0508
      4 C         139.1522  143.2934  160.1325 C.ar    1  UNL1        0.1353
      5 N         138.7980  143.0948  158.6885 N.ar    1  UNL1       -0.2089
      6 C         138.2928  141.7636  158.2166 C.ar    1  UNL1        0.2000
      7 N         138.1419  140.6312  159.1886 N.ar    1  UNL1       -0.2238
      8 C         138.4961  140.8298  160.6325 C.ar    1  UNL1        0.0888
      9 C         138.3451  139.6974  161.6045 C.ar    1  UNL1        0.0574
     10 C         138.6993  139.8961  163.0484 C.ar    1  UNL1        0.1534
     11 O         142.0157  141.9362  164.2915 O.2     1  UNL1       -0.2697
     12 C         140.9643  141.7805  165.3499 C.2     1  UNL1        0.2520
     13 N         139.5587  141.4260  164.9644 N.am    1  UNL1       -0.2779
     14 H         138.8686  141.3237  165.6591 H       1  UNL1        0.1553
     15 C         141.3185  141.9791  166.7940 C.ar    1  UNL1        0.0872
     16 C         140.2422  141.9667  167.8387 C.ar    1  UNL1        0.0820
     17 C         140.5963  142.1654  169.2827 C.ar    1  UNL1        0.2903
     18 C         142.0267  142.3765  169.6819 C.ar    1  UNL1        0.0776
     19 C         143.1029  142.3889  168.6372 C.ar    1  UNL1        0.0361
     20 C         142.7488  142.1903  167.1932 C.ar    1  UNL1        0.1449
     21 F         143.8251  142.2027  166.1484 F       1  UNL1       -0.2040
     22 N         139.5200  142.1529  170.3274 N.pl3   1  UNL1        0.0809
     23 O         138.6441  140.9459  170.4875 O.2     1  UNL1        0.0415
     24 O         139.3197  143.3476  171.2121 O.co2   1  UNL1       -0.5760
     25 N         139.6574  144.6247  160.6045 N.pl3   1  UNL1       -0.2978
     26 H         139.2198  145.4529  160.3016 H       1  UNL1        0.1536
     27 C         140.8294  144.6939  161.5381 C.ar    1  UNL1        0.0504
     28 C         140.7127  145.4395  162.8344 C.ar    1  UNL1        0.0170
     29 C         141.8847  145.5088  163.7680 C.ar    1  UNL1        0.0318
     30 C         143.1734  144.8324  163.4053 C.ar    1  UNL1        0.1507
     31 F         144.3454  144.9017  164.3389 F       1  UNL1       -0.2033
     32 C         143.2902  144.0868  162.1090 C.ar    1  UNL1        0.0863
     33 CL        144.5790  143.4104  161.7463 Cl      1  UNL1       -0.0799
     34 C         142.1182  144.0175  161.1754 C.ar    1  UNL1        0.0283
     35 O         138.5483  138.7636  164.0204 O.3     1  UNL1       -0.4741
     36 C         139.1531  137.4258  163.7131 C.3     1  UNL1        0.2069
     37 C         140.4503  137.0249  164.3506 C.3     1  UNL1        0.0646
     38 C         141.3241  138.0629  164.9901 C.3     1  UNL1        0.0761
     39 N         142.4541  138.6731  164.2150 N.3     1  UNL1       -0.2683
     40 C         142.3078  138.9170  162.7422 C.3     1  UNL1        0.1046
     41 C         143.4378  139.5271  161.9671 C.3     1  UNL1        0.1595
     42 O         144.7142  139.8934  162.6649 O.3     1  UNL1       -0.3508
     43 C         144.8605  139.6495  164.1376 C.3     1  UNL1        0.1595
     44 C         143.7304  139.0394  164.9127 C.3     1  UNL1        0.1046
@<TRIPOS>UNITY_ATOM_ATTR
22 1
charge 1
24 1
charge -1
@<TRIPOS>BOND
     1    11    12    2
     2    12    13   am
     3    13     1    1
     4     1     2   ar
     5     2     3   ar
     6     3     4   ar
     7     4    25    1
     8    25    27    1
     9    27    28   ar
    10    28    29   ar
    11    29    30   ar
    12    30    31    1
    13    30    32   ar
    14    32    33    1
    15    32    34   ar
    16     4     5   ar
    17     5     6   ar
    18     6     7   ar
    19     7     8   ar
    20     8     9   ar
    21     9    10   ar
    22    10    35    1
    23    35    36    1
    24    36    37    1
    25    37    38    1
    26    38    39    1
    27    39    40    1
    28    40    41    1
    29    41    42    1
    30    42    43    1
    31    43    44    1
    32    12    15    1
    33    15    16   ar
    34    16    17   ar
    35    17    22    1
    36    22    23    2
    37    22    24    1
    38    17    18   ar
    39    18    19   ar
    40    19    20   ar
    41    20    21    1
    42    10     1   ar
    43    44    39    1
    44    20    15   ar
    45     8     3   ar
    46    34    27   ar
    47    13    14    1
    48    25    26    1
@<TRIPOS>MOLECULE
*****
 44 48 0 0 0
SMALL
GASTEIGER

@<TRIPOS>ATOM
      1 C         143.9232  141.5353  162.7723 C.ar    1  UNL1        0.0852
      2 C         143.6267  140.3303  161.9297 C.ar    1  UNL1        0.0221
      3 C         143.7861  140.3993  160.4398 C.ar    1  UNL1        0.0508
      4 C         143.4896  139.1942  159.5972 C.ar    1  UNL1        0.1353
      5 N         143.6490  139.2632  158.1073 N.ar    1  UNL1       -0.2089
      6 C         144.1049  140.5372  157.4600 C.ar    1  UNL1        0.2000
      7 N         144.4014  141.7423  158.3026 N.ar    1  UNL1       -0.2238
      8 C         144.2420  141.6733  159.7925 C.ar    1  UNL1        0.0888
      9 C         144.5384  142.8783  160.6351 C.ar    1  UNL1        0.0574
     10 C         144.3790  142.8094  162.1250 C.ar    1  UNL1        0.1534
     11 O         141.2173  141.9157  164.0107 O.2     1  UNL1       -0.2697
     12 C         142.4108  141.6565  164.8814 C.2     1  UNL1        0.2520
     13 N         143.7638  141.4663  164.2622 N.am    1  UNL1       -0.2779
     14 H         144.5471  141.2962  164.8337 H       1  UNL1        0.1553
     15 C         142.2515  141.5876  166.3713 C.ar    1  UNL1        0.0872
     16 C         141.1461  140.7694  166.9703 C.ar    1  UNL1        0.0820
     17 C         140.9867  140.7004  168.4602 C.ar    1  UNL1        0.2903
     18 C         141.9327  141.4495  169.3511 C.ar    1  UNL1        0.0776
     19 C         143.0381  142.2677  168.7521 C.ar    1  UNL1        0.0361
     20 C         143.1975  142.3367  167.2623 C.ar    1  UNL1        0.1449
     21 F         144.3029  143.1549  166.6633 F       1  UNL1       -0.2040
     22 N         139.8813  139.8822  169.0591 N.pl3   1  UNL1        0.0809
     23 O         139.9008  139.5518  170.5221 O.2     1  UNL1        0.0415
     24 O         138.7564  139.3944  168.1951 O.co2   1  UNL1       -0.5760
     25 N         143.0337  137.9202  160.2445 N.pl3   1  UNL1       -0.2978
     26 H         143.5413  137.0882  160.1052 H       1  UNL1        0.1536
     27 C         141.8044  137.9138  161.1041 C.ar    1  UNL1        0.0504
     28 C         140.4810  138.3151  160.5232 C.ar    1  UNL1        0.0170
     29 C         139.2517  138.3087  161.3827 C.ar    1  UNL1        0.0318
     30 C         139.3459  137.9010  162.8231 C.ar    1  UNL1        0.1507
     31 F         138.1166  137.8946  163.6827 F       1  UNL1       -0.2033
     32 C         140.6693  137.4996  163.4041 C.ar    1  UNL1        0.0863
     33 CL        140.7634  137.0919  164.8445 Cl      1  UNL1       -0.0799
     34 C         141.8986  137.5060  162.5445 C.ar    1  UNL1        0.0283
     35 O         144.6755  144.0144  162.9676 O.3     1  UNL1       -0.4741
     36 C         143.7227  145.1728  162.9814 C.3     1  UNL1        0.2069
     37 C         142.3517  145.0092  163.5677 C.3     1  UNL1        0.0646
     38 C         141.1629  145.6034  162.8724 C.3     1  UNL1        0.0761
     39 N         140.0110  144.7281  162.4760 N.3     1  UNL1       -0.2683
     40 C         140.0765  143.9315  161.2066 C.3     1  UNL1        0.1046
     41 C         138.9246  143.0563  160.8102 C.3     1  UNL1        0.1595
     42 O         137.7073  142.9776  161.6832 O.3     1  UNL1       -0.3508
     43 C         137.6419  143.7742  162.9525 C.3     1  UNL1        0.1595
     44 C         138.7937  144.6494  163.3489 C.3     1  UNL1        0.1046
@<TRIPOS>UNITY_ATOM_ATTR
22 1
charge 1
24 1
charge -1
@<TRIPOS>BOND
     1    11    12    2
     2    12    13   am
     3    13     1    1
     4     1     2   ar
     5     2     3   ar
     6     3     4   ar
     7     4    25    1
     8    25    27    1
     9    27    28   ar
    10    28    29   ar
    11    29    30   ar
    12    30    31    1
    13    30    32   ar
    14    32    33    1
    15    32    34   ar
    16     4     5   ar
    17     5     6   ar
    18     6     7   ar
    19     7     8   ar
    20     8     9   ar
    21     9    10   ar
    22    10    35    1
    23    35    36    1
    24    36    37    1
    25    37    38    1
    26    38    39    1
    27    39    40    1
    28    40    41    1
    29    41    42    1
    30    42    43    1
    31    43    44    1
    32    12    15    1
    33    15    16   ar
    34    16    17   ar
    35    17    22    1
    36    22    23    2
    37    22    24    1
    38    17    18   ar
    39    18    19   ar
    40    19    20   ar
    41    20    21    1
    42    10     1   ar
    43    44    39    1
    44    20    15   ar
    45     8     3   ar
    46    34    27   ar
    47    13    14    1
    48    25    26    1
