@<TRIPOS>MOLECULE
*****
 30 33 0 0 0
SMALL
GASTEIGER

@<TRIPOS>ATOM
      1 C         139.1135  144.6473  164.8958 C.3     1  UNL1        0.0282
      2 C         139.6778  144.0486  163.6416 C.3     1  UNL1        0.1189
      3 C         139.7153  144.8541  162.3768 C.ar    1  UNL1        0.1137
      4 N         139.2722  146.2526  162.0641 N.ar    1  UNL1       -0.1315
      5 N         139.5627  146.5180  160.6166 N.ar    1  UNL1       -0.0588
      6 N         140.1854  145.2836  160.0348 N.ar    1  UNL1       -0.1972
      7 C         140.2797  144.2552  161.1227 C.ar    1  UNL1        0.0823
      8 C         140.8066  142.8508  161.1333 C.3     1  UNL1        0.0688
      9 C         140.7691  142.0453  162.3981 C.3     1  UNL1        0.1004
     10 N         140.2048  142.6441  163.6522 N.am    1  UNL1       -0.2719
     11 C         140.1673  141.8385  164.9171 C.2     1  UNL1        0.2501
     12 O         139.6029  142.4374  166.1712 O.2     1  UNL1       -0.2699
     13 C         140.6348  145.1084  158.6145 C.ar    1  UNL1        0.1673
     14 C         139.8436  144.2433  157.6788 C.ar    1  UNL1        0.0685
     15 C         140.2930  144.0680  156.2584 C.ar    1  UNL1        0.1448
     16 F         139.5017  143.2028  155.3228 F       1  UNL1       -0.2040
     17 C         141.5336  144.7579  155.7738 C.ar    1  UNL1        0.0504
     18 C         142.3248  145.6231  156.7095 C.ar    1  UNL1        0.1029
     19 N         141.8755  145.7983  158.1298 N.ar    1  UNL1       -0.2248
     20 C         140.6942  140.4342  164.9277 C.ar    1  UNL1        0.0641
     21 C         139.7899  139.2912  164.5728 C.ar    1  UNL1        0.0054
     22 C         140.3169  137.8868  164.5835 C.ar    1  UNL1        0.0001
     23 C         141.7479  137.6254  164.9490 C.ar    1  UNL1        0.0047
     24 C         142.6522  138.7685  165.3040 C.ar    1  UNL1        0.0821
     25 C         142.1253  140.1729  165.2933 C.ar    1  UNL1        0.0659
     26 CL        143.0295  141.3158  165.6483 Cl      1  UNL1       -0.0822
     27 C         144.0833  138.5071  165.6696 C.3     1  UNL1        0.4194
     28 F         145.5144  138.2457  166.0352 F       1  UNL1       -0.1658
     29 F         143.6636  138.1666  167.0689 F       1  UNL1       -0.1658
     30 F         144.5029  138.8476  164.2703 F       1  UNL1       -0.1658
@<TRIPOS>BOND
     1     2     1    1
     2     2     3    1
     3     3     4   ar
     4     4     5   ar
     5     5     6   ar
     6     6    13    1
     7    13    14   ar
     8    14    15   ar
     9    15    16    1
    10    15    17   ar
    11    17    18   ar
    12    18    19   ar
    13     6     7   ar
    14     7     8    1
    15     8     9    1
    16     9    10    1
    17    10    11   am
    18    11    12    2
    19    11    20    1
    20    20    21   ar
    21    21    22   ar
    22    22    23   ar
    23    23    24   ar
    24    24    27    1
    25    27    28    1
    26    27    29    1
    27    27    30    1
    28    24    25   ar
    29    25    26    1
    30    10     2    1
    31    25    20   ar
    32     7     3   ar
    33    19    13   ar
@<TRIPOS>MOLECULE
*****
 30 33 0 0 0
SMALL
GASTEIGER

@<TRIPOS>ATOM
      1 C         139.5175  145.5340  162.5961 C.3     1  UNL1        0.0282
      2 C         140.2113  144.2849  162.1393 C.3     1  UNL1        0.1189
      3 C         141.0335  144.2996  160.8849 C.ar    1  UNL1        0.1137
      4 N         141.3411  145.3875  159.8991 N.ar    1  UNL1       -0.1315
      5 N         142.2250  144.8108  158.8332 N.ar    1  UNL1       -0.0588
      6 N         142.4637  143.3665  159.1602 N.ar    1  UNL1       -0.1972
      7 C         141.7273  143.0505  160.4282 C.ar    1  UNL1        0.0823
      8 C         141.5988  141.7868  161.2260 C.3     1  UNL1        0.0688
      9 C         140.7766  141.7721  162.4805 C.3     1  UNL1        0.1004
     10 N         140.0829  143.0211  162.9371 N.am    1  UNL1       -0.2719
     11 C         139.2606  143.0064  164.1917 C.2     1  UNL1        0.2501
     12 O         138.5669  144.2555  164.6484 O.2     1  UNL1       -0.2699
     13 C         143.2931  142.4067  158.3597 C.ar    1  UNL1        0.1673
     14 C         144.7117  142.7494  158.0133 C.ar    1  UNL1        0.0685
     15 C         145.5412  141.7896  157.2128 C.ar    1  UNL1        0.1448
     16 F         146.9599  142.1325  156.8664 F       1  UNL1       -0.2040
     17 C         144.9521  140.4872  156.7586 C.ar    1  UNL1        0.0504
     18 C         143.5334  140.1444  157.1051 C.ar    1  UNL1        0.1029
     19 N         142.7039  141.1041  157.9055 N.ar    1  UNL1       -0.2248
     20 C         139.1322  141.7427  164.9895 C.ar    1  UNL1        0.0641
     21 C         138.2284  140.6441  164.5138 C.ar    1  UNL1        0.0054
     22 C         138.1000  139.3803  165.3117 C.ar    1  UNL1        0.0001
     23 C         138.8753  139.2153  166.5851 C.ar    1  UNL1        0.0047
     24 C         139.7791  140.3140  167.0608 C.ar    1  UNL1        0.0821
     25 C         139.9075  141.5777  166.2630 C.ar    1  UNL1        0.0659
     26 CL        140.8113  142.6763  166.7386 Cl      1  UNL1       -0.0822
     27 C         140.5543  140.1489  168.3342 C.3     1  UNL1        0.4194
     28 F         141.3296  139.9838  169.6077 F       1  UNL1       -0.1658
     29 F         139.4011  140.7136  169.1095 F       1  UNL1       -0.1658
     30 F         141.7076  139.5842  167.5589 F       1  UNL1       -0.1658
@<TRIPOS>BOND
     1     2     1    1
     2     2     3    1
     3     3     4   ar
     4     4     5   ar
     5     5     6   ar
     6     6    13    1
     7    13    14   ar
     8    14    15   ar
     9    15    16    1
    10    15    17   ar
    11    17    18   ar
    12    18    19   ar
    13     6     7   ar
    14     7     8    1
    15     8     9    1
    16     9    10    1
    17    10    11   am
    18    11    12    2
    19    11    20    1
    20    20    21   ar
    21    21    22   ar
    22    22    23   ar
    23    23    24   ar
    24    24    27    1
    25    27    28    1
    26    27    29    1
    27    27    30    1
    28    24    25   ar
    29    25    26    1
    30    10     2    1
    31    25    20   ar
    32     7     3   ar
    33    19    13   ar
@<TRIPOS>MOLECULE
*****
 30 33 0 0 0
SMALL
GASTEIGER

@<TRIPOS>ATOM
      1 C         140.0657  145.7029  162.5554 C.3     1  UNL1        0.0282
      2 C         140.8356  144.4868  162.1331 C.3     1  UNL1        0.1189
      3 C         141.4485  144.4246  160.7655 C.ar    1  UNL1        0.1137
      4 N         141.4609  145.3998  159.6259 N.ar    1  UNL1       -0.1315
      5 N         142.2385  144.7864  158.4994 N.ar    1  UNL1       -0.0588
      6 N         142.7067  143.4321  158.9427 N.ar    1  UNL1       -0.1972
      7 C         142.2185  143.2084  160.3433 C.ar    1  UNL1        0.0823
      8 C         142.3755  142.0546  161.2887 C.3     1  UNL1        0.0688
      9 C         141.7626  142.1168  162.6564 C.3     1  UNL1        0.1004
     10 N         140.9927  143.3328  163.0786 N.am    1  UNL1       -0.2719
     11 C         140.3798  143.3950  164.4463 C.2     1  UNL1        0.2501
     12 O         139.6098  144.6112  164.8685 O.2     1  UNL1       -0.2699
     13 C         143.5203  142.4703  158.1285 C.ar    1  UNL1        0.1673
     14 C         144.9726  142.7452  157.8734 C.ar    1  UNL1        0.0685
     15 C         145.7863  141.7834  157.0591 C.ar    1  UNL1        0.1448
     16 F         147.2387  142.0584  156.8040 F       1  UNL1       -0.2040
     17 C         145.1476  140.5468  156.5000 C.ar    1  UNL1        0.0504
     18 C         143.6952  140.2719  156.7551 C.ar    1  UNL1        0.1029
     19 N         142.8816  141.2336  157.5693 N.ar    1  UNL1       -0.2248
     20 C         140.5368  142.2412  165.3917 C.ar    1  UNL1        0.0641
     21 C         141.8003  142.0887  166.1857 C.ar    1  UNL1        0.0054
     22 C         141.9573  140.9347  167.1311 C.ar    1  UNL1        0.0001
     23 C         140.8509  139.9334  167.2826 C.ar    1  UNL1        0.0047
     24 C         139.5873  140.0859  166.4886 C.ar    1  UNL1        0.0821
     25 C         139.4303  141.2398  165.5432 C.ar    1  UNL1        0.0659
     26 CL        138.1668  141.3923  164.7493 Cl      1  UNL1       -0.0822
     27 C         138.4809  139.0845  166.6402 C.3     1  UNL1        0.4194
     28 F         137.3744  138.0831  166.7917 F       1  UNL1       -0.1658
     29 F         138.7471  138.5804  165.2527 F       1  UNL1       -0.1658
     30 F         138.2146  139.5886  168.0276 F       1  UNL1       -0.1658
@<TRIPOS>BOND
     1     2     1    1
     2     2     3    1
     3     3     4   ar
     4     4     5   ar
     5     5     6   ar
     6     6    13    1
     7    13    14   ar
     8    14    15   ar
     9    15    16    1
    10    15    17   ar
    11    17    18   ar
    12    18    19   ar
    13     6     7   ar
    14     7     8    1
    15     8     9    1
    16     9    10    1
    17    10    11   am
    18    11    12    2
    19    11    20    1
    20    20    21   ar
    21    21    22   ar
    22    22    23   ar
    23    23    24   ar
    24    24    27    1
    25    27    28    1
    26    27    29    1
    27    27    30    1
    28    24    25   ar
    29    25    26    1
    30    10     2    1
    31    25    20   ar
    32     7     3   ar
    33    19    13   ar
@<TRIPOS>MOLECULE
*****
 30 33 0 0 0
SMALL
GASTEIGER

@<TRIPOS>ATOM
      1 C         138.4690  138.1498  162.8702 C.3     1  UNL1        0.0282
      2 C         139.2449  139.0935  163.7405 C.3     1  UNL1        0.1189
      3 C         139.0061  139.1165  165.2212 C.ar    1  UNL1        0.1137
      4 N         138.0779  138.3320  166.1004 N.ar    1  UNL1       -0.1315
      5 N         138.2801  138.7908  167.5141 N.ar    1  UNL1       -0.0588
      6 N         139.3333  139.8589  167.5086 N.ar    1  UNL1       -0.1972
      7 C         139.7820  140.0602  166.0915 C.ar    1  UNL1        0.0823
      8 C         140.7968  140.9808  165.4811 C.3     1  UNL1        0.0688
      9 C         141.0357  140.9578  164.0005 C.3     1  UNL1        0.1004
     10 N         140.2598  140.0142  163.1302 N.am    1  UNL1       -0.2719
     11 C         140.4987  139.9911  161.6495 C.2     1  UNL1        0.2501
     12 O         139.7228  139.0475  160.7792 O.2     1  UNL1       -0.2699
     13 C         139.8476  140.5962  168.7094 C.ar    1  UNL1        0.1673
     14 C         140.0114  142.0864  168.6611 C.ar    1  UNL1        0.0685
     15 C         140.5256  142.8238  169.8619 C.ar    1  UNL1        0.1448
     16 F         140.6894  144.3141  169.8135 F       1  UNL1       -0.2040
     17 C         140.8761  142.0709  171.1110 C.ar    1  UNL1        0.0504
     18 C         140.7123  140.5806  171.1593 C.ar    1  UNL1        0.1029
     19 N         140.1981  139.8433  169.9585 N.ar    1  UNL1       -0.2248
     20 C         141.5136  140.9118  161.0391 C.ar    1  UNL1        0.0641
     21 C         142.9559  140.5043  160.9796 C.ar    1  UNL1        0.0054
     22 C         143.9707  141.4250  160.3692 C.ar    1  UNL1        0.0001
     23 C         143.5432  142.7530  159.8184 C.ar    1  UNL1        0.0047
     24 C         142.1007  143.1605  159.8779 C.ar    1  UNL1        0.0821
     25 C         141.0859  142.2399  160.4883 C.ar    1  UNL1        0.0659
     26 CL        139.6436  142.6473  160.5478 Cl      1  UNL1       -0.0822
     27 C         141.6732  144.4886  159.3271 C.3     1  UNL1        0.4194
     28 F         141.2457  145.8167  158.7763 F       1  UNL1       -0.1658
     29 F         141.7493  145.0834  160.7020 F       1  UNL1       -0.1658
     30 F         141.5971  143.8938  157.9521 F       1  UNL1       -0.1658
@<TRIPOS>BOND
     1     2     1    1
     2     2     3    1
     3     3     4   ar
     4     4     5   ar
     5     5     6   ar
     6     6    13    1
     7    13    14   ar
     8    14    15   ar
     9    15    16    1
    10    15    17   ar
    11    17    18   ar
    12    18    19   ar
    13     6     7   ar
    14     7     8    1
    15     8     9    1
    16     9    10    1
    17    10    11   am
    18    11    12    2
    19    11    20    1
    20    20    21   ar
    21    21    22   ar
    22    22    23   ar
    23    23    24   ar
    24    24    27    1
    25    27    28    1
    26    27    29    1
    27    27    30    1
    28    24    25   ar
    29    25    26    1
    30    10     2    1
    31    25    20   ar
    32     7     3   ar
    33    19    13   ar
@<TRIPOS>MOLECULE
*****
 30 33 0 0 0
SMALL
GASTEIGER

@<TRIPOS>ATOM
      1 C         143.7598  137.9149  160.8778 C.3     1  UNL1        0.0282
      2 C         142.3780  138.1401  160.3394 C.3     1  UNL1        0.1189
      3 C         142.1200  138.0306  158.8658 C.ar    1  UNL1        0.1137
      4 N         143.0225  137.7170  157.7095 N.ar    1  UNL1       -0.1315
      5 N         142.1984  137.7485  156.4566 N.ar    1  UNL1       -0.0588
      6 N         140.7866  138.0815  156.8385 N.ar    1  UNL1       -0.1972
      7 C         140.7381  138.2558  158.3276 C.ar    1  UNL1        0.0823
      8 C         139.6142  138.5906  159.2629 C.3     1  UNL1        0.0688
      9 C         139.8722  138.7001  160.7365 C.3     1  UNL1        0.1004
     10 N         141.2540  138.4749  161.2747 N.am    1  UNL1       -0.2719
     11 C         141.5120  138.5844  162.7484 C.2     1  UNL1        0.2501
     12 O         142.8939  138.3592  163.2866 O.2     1  UNL1       -0.2699
     13 C         139.6269  138.2164  155.8968 C.ar    1  UNL1        0.1673
     14 C         139.4380  137.2196  154.7920 C.ar    1  UNL1        0.0685
     15 C         138.2783  137.3545  153.8502 C.ar    1  UNL1        0.1448
     16 F         138.0895  136.3576  152.7454 F       1  UNL1       -0.2040
     17 C         137.3075  138.4862  154.0133 C.ar    1  UNL1        0.0504
     18 C         137.4964  139.4831  155.1182 C.ar    1  UNL1        0.1029
     19 N         138.6560  139.3482  156.0599 N.ar    1  UNL1       -0.2248
     20 C         140.3881  138.9192  163.6837 C.ar    1  UNL1        0.0641
     21 C         139.7636  137.8429  164.5212 C.ar    1  UNL1        0.0054
     22 C         138.6396  138.1777  165.4565 C.ar    1  UNL1        0.0001
     23 C         138.1404  139.5887  165.5543 C.ar    1  UNL1        0.0047
     24 C         138.7650  140.6651  164.7167 C.ar    1  UNL1        0.0821
     25 C         139.8889  140.3303  163.7814 C.ar    1  UNL1        0.0659
     26 CL        140.5134  141.4066  162.9439 Cl      1  UNL1       -0.0822
     27 C         138.2657  142.0762  164.8145 C.3     1  UNL1        0.4194
     28 F         137.7664  143.4873  164.9123 F       1  UNL1       -0.1658
     29 F         139.2932  142.3667  165.8680 F       1  UNL1       -0.1658
     30 F         137.2382  141.7856  163.7610 F       1  UNL1       -0.1658
@<TRIPOS>BOND
     1     2     1    1
     2     2     3    1
     3     3     4   ar
     4     4     5   ar
     5     5     6   ar
     6     6    13    1
     7    13    14   ar
     8    14    15   ar
     9    15    16    1
    10    15    17   ar
    11    17    18   ar
    12    18    19   ar
    13     6     7   ar
    14     7     8    1
    15     8     9    1
    16     9    10    1
    17    10    11   am
    18    11    12    2
    19    11    20    1
    20    20    21   ar
    21    21    22   ar
    22    22    23   ar
    23    23    24   ar
    24    24    27    1
    25    27    28    1
    26    27    29    1
    27    27    30    1
    28    24    25   ar
    29    25    26    1
    30    10     2    1
    31    25    20   ar
    32     7     3   ar
    33    19    13   ar
@<TRIPOS>MOLECULE
*****
 30 33 0 0 0
SMALL
GASTEIGER

@<TRIPOS>ATOM
      1 C         138.0793  138.6888  162.7225 C.3     1  UNL1        0.0282
      2 C         138.8098  139.6518  163.6109 C.3     1  UNL1        0.1189
      3 C         138.7775  139.4713  165.0996 C.ar    1  UNL1        0.1137
      4 N         138.1151  138.4468  165.9723 N.ar    1  UNL1       -0.1315
      5 N         138.4363  138.7766  167.3999 N.ar    1  UNL1       -0.0588
      6 N         139.2972  140.0049  167.4095 N.ar    1  UNL1       -0.1972
      7 C         139.5080  140.4343  165.9879 C.ar    1  UNL1        0.0823
      8 C         140.2709  141.5778  165.3874 C.3     1  UNL1        0.0688
      9 C         140.3031  141.7582  163.8986 C.3     1  UNL1        0.1004
     10 N         139.5727  140.7953  163.0104 N.am    1  UNL1       -0.2719
     11 C         139.6050  140.9758  161.5216 C.2     1  UNL1        0.2501
     12 O         138.8744  140.0128  160.6333 O.2     1  UNL1       -0.2699
     13 C         139.8501  140.6845  168.6271 C.ar    1  UNL1        0.1673
     14 C         140.0431  142.1720  168.6331 C.ar    1  UNL1        0.0685
     15 C         140.5960  142.8517  169.8507 C.ar    1  UNL1        0.1448
     16 F         140.7890  144.3393  169.8566 F       1  UNL1       -0.2040
     17 C         140.9558  142.0439  171.0621 C.ar    1  UNL1        0.0504
     18 C         140.7628  140.5563  171.0561 C.ar    1  UNL1        0.1029
     19 N         140.2099  139.8767  169.8386 N.ar    1  UNL1       -0.2248
     20 C         140.3678  142.1193  160.9211 C.ar    1  UNL1        0.0641
     21 C         139.7175  143.4637  160.7817 C.ar    1  UNL1        0.0054
     22 C         140.4804  144.6072  160.1812 C.ar    1  UNL1        0.0001
     23 C         141.8934  144.4062  159.7201 C.ar    1  UNL1        0.0047
     24 C         142.5438  143.0616  159.8595 C.ar    1  UNL1        0.0821
     25 C         141.7809  141.9181  160.4600 C.ar    1  UNL1        0.0659
     26 CL        142.4313  140.5737  160.5993 Cl      1  UNL1       -0.0822
     27 C         143.9569  142.8606  159.3983 C.3     1  UNL1        0.4194
     28 F         145.3700  142.6595  158.9372 F       1  UNL1       -0.1658
     29 F         143.4635  142.5744  158.0110 F       1  UNL1       -0.1658
     30 F         144.4503  143.1467  160.7857 F       1  UNL1       -0.1658
@<TRIPOS>BOND
     1     2     1    1
     2     2     3    1
     3     3     4   ar
     4     4     5   ar
     5     5     6   ar
     6     6    13    1
     7    13    14   ar
     8    14    15   ar
     9    15    16    1
    10    15    17   ar
    11    17    18   ar
    12    18    19   ar
    13     6     7   ar
    14     7     8    1
    15     8     9    1
    16     9    10    1
    17    10    11   am
    18    11    12    2
    19    11    20    1
    20    20    21   ar
    21    21    22   ar
    22    22    23   ar
    23    23    24   ar
    24    24    27    1
    25    27    28    1
    26    27    29    1
    27    27    30    1
    28    24    25   ar
    29    25    26    1
    30    10     2    1
    31    25    20   ar
    32     7     3   ar
    33    19    13   ar
@<TRIPOS>MOLECULE
*****
 30 33 0 0 0
SMALL
GASTEIGER

@<TRIPOS>ATOM
      1 C         144.0114  137.7769  161.2272 C.3     1  UNL1        0.0282
      2 C         142.7053  138.3295  160.7382 C.3     1  UNL1        0.1189
      3 C         142.2800  138.1034  159.3177 C.ar    1  UNL1        0.1137
      4 N         142.9336  137.3810  158.1772 N.ar    1  UNL1       -0.1315
      5 N         142.0316  137.4871  156.9834 N.ar    1  UNL1       -0.0588
      6 N         140.8204  138.2751  157.3862 N.ar    1  UNL1       -0.1972
      7 C         140.9740  138.6561  158.8288 C.ar    1  UNL1        0.0823
      8 C         140.0933  139.4348  159.7605 C.3     1  UNL1        0.0688
      9 C         140.5187  139.6608  161.1811 C.3     1  UNL1        0.1004
     10 N         141.8246  139.1082  161.6699 N.am    1  UNL1       -0.2719
     11 C         142.2500  139.3343  163.0906 C.2     1  UNL1        0.2501
     12 O         143.5560  138.7816  163.5794 O.2     1  UNL1       -0.2699
     13 C         139.6596  138.6214  156.5015 C.ar    1  UNL1        0.1673
     14 C         139.1512  137.6216  155.5057 C.ar    1  UNL1        0.0685
     15 C         137.9903  137.9679  154.6210 C.ar    1  UNL1        0.1448
     16 F         137.4819  136.9679  153.6252 F       1  UNL1       -0.2040
     17 C         137.3380  139.3139  154.7322 C.ar    1  UNL1        0.0504
     18 C         137.8465  140.3138  155.7281 C.ar    1  UNL1        0.1029
     19 N         139.0073  139.9676  156.6127 N.ar    1  UNL1       -0.2248
     20 C         141.3693  140.1130  164.0223 C.ar    1  UNL1        0.0641
     21 C         141.4339  141.6115  164.0383 C.ar    1  UNL1        0.0054
     22 C         140.5531  142.3901  164.9701 C.ar    1  UNL1        0.0001
     23 C         139.6080  141.6703  165.8857 C.ar    1  UNL1        0.0047
     24 C         139.5434  140.1717  165.8696 C.ar    1  UNL1        0.0821
     25 C         140.4241  139.3930  164.9379 C.ar    1  UNL1        0.0659
     26 CL        140.3595  137.8945  164.9219 Cl      1  UNL1       -0.0822
     27 C         138.5982  139.4519  166.7853 C.3     1  UNL1        0.4194
     28 F         137.6530  138.7321  167.7009 F       1  UNL1       -0.1658
     29 F         137.5872  139.3735  165.6800 F       1  UNL1       -0.1658
     30 F         139.6093  139.5303  167.8906 F       1  UNL1       -0.1658
@<TRIPOS>BOND
     1     2     1    1
     2     2     3    1
     3     3     4   ar
     4     4     5   ar
     5     5     6   ar
     6     6    13    1
     7    13    14   ar
     8    14    15   ar
     9    15    16    1
    10    15    17   ar
    11    17    18   ar
    12    18    19   ar
    13     6     7   ar
    14     7     8    1
    15     8     9    1
    16     9    10    1
    17    10    11   am
    18    11    12    2
    19    11    20    1
    20    20    21   ar
    21    21    22   ar
    22    22    23   ar
    23    23    24   ar
    24    24    27    1
    25    27    28    1
    26    27    29    1
    27    27    30    1
    28    24    25   ar
    29    25    26    1
    30    10     2    1
    31    25    20   ar
    32     7     3   ar
    33    19    13   ar
@<TRIPOS>MOLECULE
*****
 30 33 0 0 0
SMALL
GASTEIGER

@<TRIPOS>ATOM
      1 C         144.3028  142.0458  159.1445 C.3     1  UNL1        0.0282
      2 C         143.6314  140.7059  159.2076 C.3     1  UNL1        0.1189
      3 C         143.6846  139.7838  158.0257 C.ar    1  UNL1        0.1137
      4 N         144.3192  139.9211  156.6735 N.ar    1  UNL1       -0.1315
      5 N         144.0400  138.6660  155.9009 N.ar    1  UNL1       -0.0588
      6 N         143.2328  137.7531  156.7756 N.ar    1  UNL1       -0.1972
      7 C         143.0132  138.4440  158.0888 C.ar    1  UNL1        0.0823
      8 C         142.2885  138.0261  159.3339 C.3     1  UNL1        0.0688
      9 C         142.2353  138.9482  160.5159 C.3     1  UNL1        0.1004
     10 N         142.9067  140.2879  160.4527 N.am    1  UNL1       -0.2719
     11 C         142.8535  141.2100  161.6348 C.2     1  UNL1        0.2501
     12 O         143.5249  142.5499  161.5716 O.2     1  UNL1       -0.2699
     13 C         142.7330  136.3889  156.4026 C.ar    1  UNL1        0.1673
     14 C         143.3263  135.1709  157.0465 C.ar    1  UNL1        0.0685
     15 C         142.8265  133.8066  156.6735 C.ar    1  UNL1        0.1448
     16 F         143.4198  132.5887  157.3174 F       1  UNL1       -0.2040
     17 C         141.7336  133.6604  155.6567 C.ar    1  UNL1        0.0504
     18 C         141.1403  134.8785  155.0128 C.ar    1  UNL1        0.1029
     19 N         141.6400  136.2427  155.3858 N.ar    1  UNL1       -0.2248
     20 C         142.1289  140.7922  162.8799 C.ar    1  UNL1        0.0641
     21 C         140.6715  141.1083  163.0413 C.ar    1  UNL1        0.0054
     22 C         139.9469  140.6904  164.2865 C.ar    1  UNL1        0.0001
     23 C         140.6796  139.9565  165.3701 C.ar    1  UNL1        0.0047
     24 C         142.1371  139.6404  165.2087 C.ar    1  UNL1        0.0821
     25 C         142.8617  140.0582  163.9636 C.ar    1  UNL1        0.0659
     26 CL        144.3191  139.7421  163.8022 Cl      1  UNL1       -0.0822
     27 C         142.8699  138.9065  166.2924 C.3     1  UNL1        0.4194
     28 F         143.6026  138.1726  167.3761 F       1  UNL1       -0.1658
     29 F         142.6884  137.6195  165.5435 F       1  UNL1       -0.1658
     30 F         143.0513  140.1934  167.0413 F       1  UNL1       -0.1658
@<TRIPOS>BOND
     1     2     1    1
     2     2     3    1
     3     3     4   ar
     4     4     5   ar
     5     5     6   ar
     6     6    13    1
     7    13    14   ar
     8    14    15   ar
     9    15    16    1
    10    15    17   ar
    11    17    18   ar
    12    18    19   ar
    13     6     7   ar
    14     7     8    1
    15     8     9    1
    16     9    10    1
    17    10    11   am
    18    11    12    2
    19    11    20    1
    20    20    21   ar
    21    21    22   ar
    22    22    23   ar
    23    23    24   ar
    24    24    27    1
    25    27    28    1
    26    27    29    1
    27    27    30    1
    28    24    25   ar
    29    25    26    1
    30    10     2    1
    31    25    20   ar
    32     7     3   ar
    33    19    13   ar
@<TRIPOS>MOLECULE
*****
 30 33 0 0 0
SMALL
GASTEIGER

@<TRIPOS>ATOM
      1 C         142.7489  137.7915  160.1398 C.3     1  UNL1        0.0282
      2 C         141.4343  138.5000  159.9991 C.3     1  UNL1        0.1189
      3 C         140.9261  138.8750  158.6386 C.ar    1  UNL1        0.1137
      4 N         141.4962  138.6789  157.2651 N.ar    1  UNL1       -0.1315
      5 N         140.5338  139.2662  156.2757 N.ar    1  UNL1       -0.0588
      6 N         139.3690  139.8253  157.0376 N.ar    1  UNL1       -0.1972
      7 C         139.6115  139.5836  158.4981 C.ar    1  UNL1        0.0823
      8 C         138.8050  139.9171  159.7180 C.3     1  UNL1        0.0688
      9 C         139.3132  139.5421  161.0786 C.3     1  UNL1        0.1004
     10 N         140.6277  138.8336  161.2192 N.am    1  UNL1       -0.2719
     11 C         141.1359  138.4585  162.5798 C.2     1  UNL1        0.2501
     12 O         142.4505  137.7500  162.7203 O.2     1  UNL1       -0.2699
     13 C         138.1720  140.5066  156.4435 C.ar    1  UNL1        0.1673
     14 C         138.1010  142.0045  156.4107 C.ar    1  UNL1        0.0685
     15 C         136.9040  142.6859  155.8165 C.ar    1  UNL1        0.1448
     16 F         136.8331  144.1839  155.7837 F       1  UNL1       -0.2040
     17 C         135.7780  141.8692  155.2553 C.ar    1  UNL1        0.0504
     18 C         135.8490  140.3712  155.2882 C.ar    1  UNL1        0.1029
     19 N         137.0459  139.6899  155.8822 N.ar    1  UNL1       -0.2248
     20 C         140.3295  138.7920  163.7998 C.ar    1  UNL1        0.0641
     21 C         139.3395  137.8020  164.3381 C.ar    1  UNL1        0.0054
     22 C         138.5330  138.1356  165.5582 C.ar    1  UNL1        0.0001
     23 C         138.7165  139.4590  166.2398 C.ar    1  UNL1        0.0047
     24 C         139.7066  140.4491  165.7014 C.ar    1  UNL1        0.0821
     25 C         140.5130  140.1156  164.4814 C.ar    1  UNL1        0.0659
     26 CL        141.5030  141.1056  163.9431 Cl      1  UNL1       -0.0822
     27 C         139.8901  141.7726  166.3831 C.3     1  UNL1        0.4194
     28 F         140.0736  143.0961  167.0647 F       1  UNL1       -0.1658
     29 F         138.9405  142.4056  165.4097 F       1  UNL1       -0.1658
     30 F         140.8398  141.1396  167.3564 F       1  UNL1       -0.1658
@<TRIPOS>BOND
     1     2     1    1
     2     2     3    1
     3     3     4   ar
     4     4     5   ar
     5     5     6   ar
     6     6    13    1
     7    13    14   ar
     8    14    15   ar
     9    15    16    1
    10    15    17   ar
    11    17    18   ar
    12    18    19   ar
    13     6     7   ar
    14     7     8    1
    15     8     9    1
    16     9    10    1
    17    10    11   am
    18    11    12    2
    19    11    20    1
    20    20    21   ar
    21    21    22   ar
    22    22    23   ar
    23    23    24   ar
    24    24    27    1
    25    27    28    1
    26    27    29    1
    27    27    30    1
    28    24    25   ar
    29    25    26    1
    30    10     2    1
    31    25    20   ar
    32     7     3   ar
    33    19    13   ar
