@<TRIPOS>MOLECULE
*****
 37 40 0 0 0
SMALL
GASTEIGER

@<TRIPOS>ATOM
      1 C         143.0427  143.3102  161.7456 C.ar    1  UNL1        0.0008
      2 C         144.1034  144.0361  162.5187 C.ar    1  UNL1       -0.0024
      3 C         143.7196  145.1155  163.4870 C.ar    1  UNL1        0.0028
      4 C         142.2750  145.4690  163.6822 C.ar    1  UNL1        0.0369
      5 C         141.2142  144.7430  162.9091 C.ar    1  UNL1        0.1389
      6 C         141.5980  143.6636  161.9408 C.ar    1  UNL1        0.0343
      7 C         143.4265  142.2308  160.7773 C.3     1  UNL1        0.1239
      8 C         141.9620  140.0893  160.6374 C.2     1  UNL1        0.4100
      9 O         140.9633  140.8273  159.7960 O.2     1  UNL1       -0.2258
     10 N         143.1937  140.7911  161.1280 N.am    1  UNL1       -0.2363
     11 O         141.7292  138.6496  160.9881 O.3     1  UNL1       -0.4101
     12 C         138.5202  137.2287  165.8546 C.3     1  UNL1        0.0310
     13 C         139.3224  137.5839  164.6380 C.ar    1  UNL1       -0.0217
     14 C         138.6513  138.2183  163.4560 C.ar    1  UNL1       -0.0011
     15 C         139.4536  138.5735  162.2394 C.ar    1  UNL1        0.0373
     16 C         140.9270  138.2944  162.2047 C.ar    1  UNL1        0.1500
     17 C         141.5981  137.6600  163.3868 C.ar    1  UNL1        0.0373
     18 C         140.7958  137.3048  164.6034 C.ar    1  UNL1       -0.0011
     19 C         144.1924  140.0532  161.9694 C.3     1  UNL1        0.1388
     20 C         144.1758  140.2071  163.4613 C.2     1  UNL1        0.0706
     21 O         143.0660  140.9679  164.1245 O.co2   1  UNL1       -0.5474
     22 O         145.2688  139.6003  164.2902 O.co2   1  UNL1       -0.5474
     23 O         139.7696  145.0965  163.1043 O.3     1  UNL1       -0.4689
     24 C         139.0795  144.7489  164.3900 C.3     1  UNL1        0.2537
     25 C         139.2348  143.3776  164.9777 C.ar    1  UNL1        0.1359
     26 N         140.1626  142.9961  166.0929 N.ar    1  UNL1       -0.2093
     27 C         139.9908  141.5297  166.3578 C.ar    1  UNL1        0.2290
     28 O         138.9568  141.0048  165.4063 O.2     1  UNL1       -0.4391
     29 C         138.4896  142.1469  164.5533 C.ar    1  UNL1        0.1421
     30 C         137.4582  142.0715  163.4668 C.3     1  UNL1        0.0740
     31 C         140.7242  140.7289  167.3925 C.ar    1  UNL1        0.0537
     32 C         141.9681  139.9790  167.0177 C.ar    1  UNL1        0.0070
     33 C         142.7016  139.1781  168.0523 C.ar    1  UNL1        0.0298
     34 C         142.1911  139.1271  169.4619 C.ar    1  UNL1        0.1401
     35 F         142.9246  138.3262  170.4967 F       1  UNL1       -0.2042
     36 C         140.9472  139.8769  169.8367 C.ar    1  UNL1        0.0298
     37 C         140.2138  140.6778  168.8020 C.ar    1  UNL1        0.0070
@<TRIPOS>UNITY_ATOM_ATTR
21 1
charge -1
@<TRIPOS>BOND
     1    12    13    1
     2    13    14   ar
     3    14    15   ar
     4    15    16   ar
     5    16    11    1
     6    11     8    1
     7     8     9    2
     8     8    10   am
     9    10    19    1
    10    19    20    1
    11    20    21   ar
    12    20    22   ar
    13    10     7    1
    14     7     1    1
    15     1     2   ar
    16     2     3   ar
    17     3     4   ar
    18     4     5   ar
    19     5    23    1
    20    23    24    1
    21    24    25    1
    22    25    26   ar
    23    26    27   ar
    24    27    31    1
    25    31    32   ar
    26    32    33   ar
    27    33    34   ar
    28    34    35    1
    29    34    36   ar
    30    36    37   ar
    31    27    28   ar
    32    28    29   ar
    33    29    30    1
    34     5     6   ar
    35    16    17   ar
    36    17    18   ar
    37    18    13   ar
    38     6     1   ar
    39    29    25   ar
    40    37    31   ar
@<TRIPOS>MOLECULE
*****
 37 40 0 0 0
SMALL
GASTEIGER

@<TRIPOS>ATOM
      1 C         140.9751  144.9601  160.8622 C.ar    1  UNL1        0.0008
      2 C         140.5332  145.4375  159.5107 C.ar    1  UNL1       -0.0024
      3 C         141.1011  144.8115  158.2715 C.ar    1  UNL1        0.0028
      4 C         142.1109  143.7081  158.3838 C.ar    1  UNL1        0.0369
      5 C         142.5528  143.2305  159.7354 C.ar    1  UNL1        0.1389
      6 C         141.9849  143.8565  160.9746 C.ar    1  UNL1        0.0343
      7 C         140.4072  145.5861  162.1014 C.3     1  UNL1        0.1239
      8 C         140.4717  144.1754  164.2822 C.2     1  UNL1        0.4100
      9 O         141.9357  144.4679  164.4282 O.2     1  UNL1       -0.2258
     10 N         139.7075  144.7345  163.1188 N.am    1  UNL1       -0.2363
     11 O         139.7720  143.3238  165.2996 O.3     1  UNL1       -0.4101
     12 C         139.8665  137.3467  164.7843 C.3     1  UNL1        0.0310
     13 C         139.8429  138.8410  164.9132 C.ar    1  UNL1       -0.0217
     14 C         139.4929  139.4751  166.2267 C.ar    1  UNL1       -0.0011
     15 C         139.4693  140.9693  166.3555 C.ar    1  UNL1        0.0373
     16 C         139.7956  141.8295  165.1708 C.ar    1  UNL1        0.1500
     17 C         140.1456  141.1954  163.8572 C.ar    1  UNL1        0.0373
     18 C         140.1692  139.7011  163.7284 C.ar    1  UNL1       -0.0011
     19 C         138.2436  144.4419  162.9728 C.3     1  UNL1        0.1388
     20 C         137.7934  143.2228  162.2238 C.2     1  UNL1        0.0706
     21 O         138.1014  143.0842  160.7623 O.co2   1  UNL1       -0.5474
     22 O         137.0353  142.1422  162.9363 O.co2   1  UNL1       -0.5474
     23 O         143.5626  142.1271  159.8477 O.3     1  UNL1       -0.4689
     24 C         144.4832  142.0704  161.0307 C.3     1  UNL1        0.2537
     25 C         144.1347  141.2142  162.2119 C.ar    1  UNL1        0.1359
     26 N         143.8736  141.7002  163.6068 N.ar    1  UNL1       -0.2093
     27 C         143.5636  140.5080  164.4627 C.ar    1  UNL1        0.2290
     28 O         143.6331  139.2850  163.5968 O.2     1  UNL1       -0.4391
     29 C         143.9860  139.7215  162.2057 C.ar    1  UNL1        0.1421
     30 C         144.1598  138.8231  161.0171 C.3     1  UNL1        0.0740
     31 C         143.2409  140.5340  165.9272 C.ar    1  UNL1        0.0537
     32 C         143.1027  141.8457  166.6416 C.ar    1  UNL1        0.0070
     33 C         142.7799  141.8719  168.1062 C.ar    1  UNL1        0.0298
     34 C         142.5953  140.5862  168.8565 C.ar    1  UNL1        0.1401
     35 F         142.2726  140.6123  170.3212 F       1  UNL1       -0.2042
     36 C         142.7335  139.2745  168.1422 C.ar    1  UNL1        0.0298
     37 C         143.0563  139.2484  166.6776 C.ar    1  UNL1        0.0070
@<TRIPOS>UNITY_ATOM_ATTR
21 1
charge -1
@<TRIPOS>BOND
     1    12    13    1
     2    13    14   ar
     3    14    15   ar
     4    15    16   ar
     5    16    11    1
     6    11     8    1
     7     8     9    2
     8     8    10   am
     9    10    19    1
    10    19    20    1
    11    20    21   ar
    12    20    22   ar
    13    10     7    1
    14     7     1    1
    15     1     2   ar
    16     2     3   ar
    17     3     4   ar
    18     4     5   ar
    19     5    23    1
    20    23    24    1
    21    24    25    1
    22    25    26   ar
    23    26    27   ar
    24    27    31    1
    25    31    32   ar
    26    32    33   ar
    27    33    34   ar
    28    34    35    1
    29    34    36   ar
    30    36    37   ar
    31    27    28   ar
    32    28    29   ar
    33    29    30    1
    34     5     6   ar
    35    16    17   ar
    36    17    18   ar
    37    18    13   ar
    38     6     1   ar
    39    29    25   ar
    40    37    31   ar
@<TRIPOS>MOLECULE
*****
 37 40 0 0 0
SMALL
GASTEIGER

@<TRIPOS>ATOM
      1 C         140.8530  142.1748  159.0005 C.ar    1  UNL1        0.0008
      2 C         141.8000  143.1178  158.3194 C.ar    1  UNL1       -0.0024
      3 C         141.8563  144.5569  158.7385 C.ar    1  UNL1        0.0028
      4 C         140.9655  145.0531  159.8386 C.ar    1  UNL1        0.0369
      5 C         140.0185  144.1101  160.5198 C.ar    1  UNL1        0.1389
      6 C         139.9622  142.6709  160.1007 C.ar    1  UNL1        0.0343
      7 C         140.7968  140.7356  158.5815 C.3     1  UNL1        0.1239
      8 C         139.3186  139.0533  159.8987 C.2     1  UNL1        0.4100
      9 O         138.1101  139.5264  159.1467 O.2     1  UNL1       -0.2258
     10 N         140.6620  139.6579  159.6161 N.am    1  UNL1       -0.2363
     11 O         139.1839  137.9756  160.9333 O.3     1  UNL1       -0.4101
     12 C         138.4329  139.4347  166.7045 C.3     1  UNL1        0.0310
     13 C         138.6206  139.0699  165.2617 C.ar    1  UNL1       -0.0217
     14 C         138.1766  140.0154  164.1852 C.ar    1  UNL1       -0.0011
     15 C         138.3644  139.6506  162.7424 C.ar    1  UNL1        0.0373
     16 C         138.9961  138.3404  162.3761 C.ar    1  UNL1        0.1500
     17 C         139.4402  137.3949  163.4526 C.ar    1  UNL1        0.0373
     18 C         139.2524  137.7597  164.8955 C.ar    1  UNL1       -0.0011
     19 C         141.8706  139.1848  160.3681 C.3     1  UNL1        0.1388
     20 C         143.0858  138.7224  159.6202 C.2     1  UNL1        0.0706
     21 O         142.9404  137.7793  158.4628 O.co2   1  UNL1       -0.5474
     22 O         144.4465  139.2029  160.0297 O.co2   1  UNL1       -0.5474
     23 O         139.1278  144.6063  161.6199 O.3     1  UNL1       -0.4689
     24 C         139.7239  145.0711  162.9155 C.3     1  UNL1        0.2537
     25 C         139.9956  144.0850  164.0126 C.ar    1  UNL1        0.1359
     26 N         140.9457  142.9264  163.9414 N.ar    1  UNL1       -0.2093
     27 C         140.9023  142.2096  165.2583 C.ar    1  UNL1        0.2290
     28 O         139.9254  142.9252  166.1436 O.2     1  UNL1       -0.4391
     29 C         139.3650  144.0843  165.3736 C.ar    1  UNL1        0.1421
     30 C         138.3520  145.0696  165.8765 C.3     1  UNL1        0.0740
     31 C         141.6963  140.9912  165.6255 C.ar    1  UNL1        0.0537
     32 C         142.2086  140.0780  164.5515 C.ar    1  UNL1        0.0070
     33 C         143.0027  138.8596  164.9186 C.ar    1  UNL1        0.0298
     34 C         143.2845  138.5543  166.3600 C.ar    1  UNL1        0.1401
     35 F         144.0785  137.3359  166.7273 F       1  UNL1       -0.2042
     36 C         142.7721  139.4675  167.4341 C.ar    1  UNL1        0.0298
     37 C         141.9781  140.6859  167.0668 C.ar    1  UNL1        0.0070
@<TRIPOS>UNITY_ATOM_ATTR
21 1
charge -1
@<TRIPOS>BOND
     1    12    13    1
     2    13    14   ar
     3    14    15   ar
     4    15    16   ar
     5    16    11    1
     6    11     8    1
     7     8     9    2
     8     8    10   am
     9    10    19    1
    10    19    20    1
    11    20    21   ar
    12    20    22   ar
    13    10     7    1
    14     7     1    1
    15     1     2   ar
    16     2     3   ar
    17     3     4   ar
    18     4     5   ar
    19     5    23    1
    20    23    24    1
    21    24    25    1
    22    25    26   ar
    23    26    27   ar
    24    27    31    1
    25    31    32   ar
    26    32    33   ar
    27    33    34   ar
    28    34    35    1
    29    34    36   ar
    30    36    37   ar
    31    27    28   ar
    32    28    29   ar
    33    29    30    1
    34     5     6   ar
    35    16    17   ar
    36    17    18   ar
    37    18    13   ar
    38     6     1   ar
    39    29    25   ar
    40    37    31   ar
@<TRIPOS>MOLECULE
*****
 37 40 0 0 0
SMALL
GASTEIGER

@<TRIPOS>ATOM
      1 C         140.1408  143.7348  161.2863 C.ar    1  UNL1        0.0008
      2 C         139.8616  145.1626  161.6513 C.ar    1  UNL1       -0.0024
      3 C         138.7436  145.4904  162.5961 C.ar    1  UNL1        0.0028
      4 C         137.9049  144.3903  163.1760 C.ar    1  UNL1        0.0369
      5 C         138.1841  142.9623  162.8110 C.ar    1  UNL1        0.1389
      6 C         139.3021  142.6346  161.8662 C.ar    1  UNL1        0.0343
      7 C         141.2588  143.4071  160.3414 C.3     1  UNL1        0.1239
      8 C         142.4907  141.1269  160.5239 C.2     1  UNL1        0.4100
      9 O         141.3830  140.4671  159.7574 O.2     1  UNL1       -0.2258
     10 N         142.4286  142.5970  160.8159 N.am    1  UNL1       -0.2363
     11 O         143.6606  140.3168  160.9983 O.3     1  UNL1       -0.4101
     12 C         143.7336  138.1429  166.5901 C.3     1  UNL1        0.0310
     13 C         143.7153  138.6863  165.1922 C.ar    1  UNL1       -0.0217
     14 C         144.8698  139.5014  164.6893 C.ar    1  UNL1       -0.0011
     15 C         144.8515  140.0449  163.2913 C.ar    1  UNL1        0.0373
     16 C         143.6788  139.7733  162.3963 C.ar    1  UNL1        0.1500
     17 C         142.5244  138.9582  162.8992 C.ar    1  UNL1        0.0373
     18 C         142.5427  138.4147  164.2972 C.ar    1  UNL1       -0.0011
     19 C         143.5363  143.2568  161.5824 C.3     1  UNL1        0.1388
     20 C         143.3521  143.5842  163.0345 C.2     1  UNL1        0.0706
     21 O         144.0193  144.7928  163.6214 O.co2   1  UNL1       -0.5474
     22 O         142.5006  142.7032  163.8999 O.co2   1  UNL1       -0.5474
     23 O         137.3454  141.8622  163.3909 O.3     1  UNL1       -0.4689
     24 C         137.9637  140.5309  163.6996 C.3     1  UNL1        0.2537
     25 C         138.8159  140.3652  164.9228 C.ar    1  UNL1        0.1359
     26 N         139.4476  141.4722  165.7139 N.ar    1  UNL1       -0.2093
     27 C         140.2080  140.8547  166.8498 C.ar    1  UNL1        0.2290
     28 O         140.0463  139.3660  166.7609 O.2     1  UNL1       -0.4391
     29 C         139.1859  139.0635  165.5699 C.ar    1  UNL1        0.1421
     30 C         138.7688  137.6990  165.1073 C.3     1  UNL1        0.0740
     31 C         140.9924  141.5956  167.8917 C.ar    1  UNL1        0.0537
     32 C         140.3082  142.5967  168.7746 C.ar    1  UNL1        0.0070
     33 C         141.0925  143.3377  169.8166 C.ar    1  UNL1        0.0298
     34 C         142.5613  143.0776  169.9756 C.ar    1  UNL1        0.1401
     35 F         143.3457  143.8185  171.0175 F       1  UNL1       -0.2042
     36 C         143.2455  142.0765  169.0926 C.ar    1  UNL1        0.0298
     37 C         142.4611  141.3355  168.0507 C.ar    1  UNL1        0.0070
@<TRIPOS>UNITY_ATOM_ATTR
21 1
charge -1
@<TRIPOS>BOND
     1    12    13    1
     2    13    14   ar
     3    14    15   ar
     4    15    16   ar
     5    16    11    1
     6    11     8    1
     7     8     9    2
     8     8    10   am
     9    10    19    1
    10    19    20    1
    11    20    21   ar
    12    20    22   ar
    13    10     7    1
    14     7     1    1
    15     1     2   ar
    16     2     3   ar
    17     3     4   ar
    18     4     5   ar
    19     5    23    1
    20    23    24    1
    21    24    25    1
    22    25    26   ar
    23    26    27   ar
    24    27    31    1
    25    31    32   ar
    26    32    33   ar
    27    33    34   ar
    28    34    35    1
    29    34    36   ar
    30    36    37   ar
    31    27    28   ar
    32    28    29   ar
    33    29    30    1
    34     5     6   ar
    35    16    17   ar
    36    17    18   ar
    37    18    13   ar
    38     6     1   ar
    39    29    25   ar
    40    37    31   ar
@<TRIPOS>MOLECULE
*****
 37 40 0 0 0
SMALL
GASTEIGER

@<TRIPOS>ATOM
      1 C         142.4362  140.2066  159.3956 C.ar    1  UNL1        0.0008
      2 C         142.2328  138.7298  159.5613 C.ar    1  UNL1       -0.0024
      3 C         142.9876  137.9830  160.6209 C.ar    1  UNL1        0.0028
      4 C         143.9457  138.7130  161.5147 C.ar    1  UNL1        0.0369
      5 C         144.1492  140.1899  161.3490 C.ar    1  UNL1        0.1389
      6 C         143.3944  140.9368  160.2895 C.ar    1  UNL1        0.0343
      7 C         141.6815  140.9535  158.3361 C.3     1  UNL1        0.1239
      8 C         139.6835  141.9411  159.6712 C.2     1  UNL1        0.4100
      9 O         139.4048  140.5879  160.2553 O.2     1  UNL1       -0.2258
     10 N         140.8219  142.1239  158.7116 N.am    1  UNL1       -0.2363
     11 O         138.8239  143.1116  160.0468 O.3     1  UNL1       -0.4101
     12 C         138.5612  144.9305  165.7583 C.3     1  UNL1        0.0310
     13 C         138.6269  144.4758  164.3305 C.ar    1  UNL1       -0.0217
     14 C         137.7728  143.3330  163.8673 C.ar    1  UNL1       -0.0011
     15 C         137.8384  142.8783  162.4394 C.ar    1  UNL1        0.0373
     16 C         138.7582  143.5663  161.4746 C.ar    1  UNL1        0.1500
     17 C         139.6124  144.7091  161.9379 C.ar    1  UNL1        0.0373
     18 C         139.5467  145.1638  163.3658 C.ar    1  UNL1       -0.0011
     19 C         141.1005  143.4771  158.1276 C.3     1  UNL1        0.1388
     20 C         141.9649  144.4515  158.8715 C.2     1  UNL1        0.0706
     21 O         142.2942  145.7810  158.2597 O.co2   1  UNL1       -0.5474
     22 O         142.5000  144.0965  160.2271 O.co2   1  UNL1       -0.5474
     23 O         145.1073  140.9200  162.2429 O.3     1  UNL1       -0.4689
     24 C         144.7087  142.2272  162.8611 C.3     1  UNL1        0.2537
     25 C         143.4834  142.3067  163.7227 C.ar    1  UNL1        0.1359
     26 N         142.6510  141.1460  164.1810 N.ar    1  UNL1       -0.2093
     27 C         141.5285  141.6828  165.0188 C.ar    1  UNL1        0.2290
     28 O         141.6671  143.1752  165.0783 O.2     1  UNL1       -0.4391
     29 C         142.8753  143.5608  164.2772 C.ar    1  UNL1        0.1421
     30 C         143.3858  144.9556  164.0675 C.3     1  UNL1        0.0740
     31 C         140.4558  140.8699  165.6808 C.ar    1  UNL1        0.0537
     32 C         139.3919  140.2143  164.8512 C.ar    1  UNL1        0.0070
     33 C         138.3191  139.4013  165.5132 C.ar    1  UNL1        0.0298
     34 C         138.3102  139.2440  167.0050 C.ar    1  UNL1        0.1401
     35 F         137.2374  138.4311  167.6670 F       1  UNL1       -0.2042
     36 C         139.3741  139.8997  167.8346 C.ar    1  UNL1        0.0298
     37 C         140.4469  140.7126  167.1725 C.ar    1  UNL1        0.0070
@<TRIPOS>UNITY_ATOM_ATTR
21 1
charge -1
@<TRIPOS>BOND
     1    12    13    1
     2    13    14   ar
     3    14    15   ar
     4    15    16   ar
     5    16    11    1
     6    11     8    1
     7     8     9    2
     8     8    10   am
     9    10    19    1
    10    19    20    1
    11    20    21   ar
    12    20    22   ar
    13    10     7    1
    14     7     1    1
    15     1     2   ar
    16     2     3   ar
    17     3     4   ar
    18     4     5   ar
    19     5    23    1
    20    23    24    1
    21    24    25    1
    22    25    26   ar
    23    26    27   ar
    24    27    31    1
    25    31    32   ar
    26    32    33   ar
    27    33    34   ar
    28    34    35    1
    29    34    36   ar
    30    36    37   ar
    31    27    28   ar
    32    28    29   ar
    33    29    30    1
    34     5     6   ar
    35    16    17   ar
    36    17    18   ar
    37    18    13   ar
    38     6     1   ar
    39    29    25   ar
    40    37    31   ar
@<TRIPOS>MOLECULE
*****
 37 40 0 0 0
SMALL
GASTEIGER

@<TRIPOS>ATOM
      1 C         143.4034  143.3949  161.5802 C.ar    1  UNL1        0.0008
      2 C         144.2995  143.9292  162.6580 C.ar    1  UNL1       -0.0024
      3 C         143.7891  144.9695  163.6105 C.ar    1  UNL1        0.0028
      4 C         142.3826  145.4756  163.4852 C.ar    1  UNL1        0.0369
      5 C         141.4865  144.9413  162.4074 C.ar    1  UNL1        0.1389
      6 C         141.9969  143.9010  161.4549 C.ar    1  UNL1        0.0343
      7 C         143.9138  142.3546  160.6278 C.3     1  UNL1        0.1239
      8 C         143.9454  140.0446  161.8166 C.2     1  UNL1        0.4100
      9 O         144.9521  140.5644  162.7997 O.2     1  UNL1       -0.2258
     10 N         143.4262  140.9398  160.7307 N.am    1  UNL1       -0.2363
     11 O         143.4578  138.6299  161.9195 O.3     1  UNL1       -0.4101
     12 C         138.7174  137.3334  165.3615 C.3     1  UNL1        0.0310
     13 C         139.9025  137.6575  164.5010 C.ar    1  UNL1       -0.0217
     14 C         141.2072  138.0401  165.1346 C.ar    1  UNL1       -0.0011
     15 C         142.3923  138.3642  164.2741 C.ar    1  UNL1        0.0373
     16 C         142.2727  138.3058  162.7800 C.ar    1  UNL1        0.1500
     17 C         140.9680  137.9232  162.1464 C.ar    1  UNL1        0.0373
     18 C         139.7829  137.5990  163.0070 C.ar    1  UNL1       -0.0011
     19 C         142.4195  140.4201  159.7476 C.3     1  UNL1        0.1388
     20 C         142.8598  139.5320  158.6218 C.2     1  UNL1        0.0706
     21 O         143.4823  140.1293  157.3947 O.co2   1  UNL1       -0.5474
     22 O         142.6776  138.0465  158.7231 O.co2   1  UNL1       -0.5474
     23 O         140.0801  145.4474  162.2821 O.3     1  UNL1       -0.4689
     24 C         138.9709  144.7745  163.0351 C.3     1  UNL1        0.2537
     25 C         139.2197  143.4672  163.7271 C.ar    1  UNL1        0.1359
     26 N         139.9212  143.2842  165.0404 N.ar    1  UNL1       -0.2093
     27 C         139.9457  141.8172  165.3525 C.ar    1  UNL1        0.2290
     28 O         139.2593  141.0935  164.2321 O.2     1  UNL1       -0.4391
     29 C         138.8106  142.1132  163.2276 C.ar    1  UNL1        0.1421
     30 C         138.0810  141.8289  161.9482 C.3     1  UNL1        0.0740
     31 C         140.5503  141.1850  166.5709 C.ar    1  UNL1        0.0537
     32 C         139.6674  140.5386  167.5968 C.ar    1  UNL1        0.0070
     33 C         140.2720  139.9063  168.8153 C.ar    1  UNL1        0.0298
     34 C         141.7596  139.9205  169.0078 C.ar    1  UNL1        0.1401
     35 F         142.3643  139.2883  170.2263 F       1  UNL1       -0.2042
     36 C         142.6425  140.5670  167.9818 C.ar    1  UNL1        0.0298
     37 C         142.0378  141.1993  166.7634 C.ar    1  UNL1        0.0070
@<TRIPOS>UNITY_ATOM_ATTR
21 1
charge -1
@<TRIPOS>BOND
     1    12    13    1
     2    13    14   ar
     3    14    15   ar
     4    15    16   ar
     5    16    11    1
     6    11     8    1
     7     8     9    2
     8     8    10   am
     9    10    19    1
    10    19    20    1
    11    20    21   ar
    12    20    22   ar
    13    10     7    1
    14     7     1    1
    15     1     2   ar
    16     2     3   ar
    17     3     4   ar
    18     4     5   ar
    19     5    23    1
    20    23    24    1
    21    24    25    1
    22    25    26   ar
    23    26    27   ar
    24    27    31    1
    25    31    32   ar
    26    32    33   ar
    27    33    34   ar
    28    34    35    1
    29    34    36   ar
    30    36    37   ar
    31    27    28   ar
    32    28    29   ar
    33    29    30    1
    34     5     6   ar
    35    16    17   ar
    36    17    18   ar
    37    18    13   ar
    38     6     1   ar
    39    29    25   ar
    40    37    31   ar
@<TRIPOS>MOLECULE
*****
 37 40 0 0 0
SMALL
GASTEIGER

@<TRIPOS>ATOM
      1 C         140.1769  142.3507  159.1194 C.ar    1  UNL1        0.0008
      2 C         139.5871  143.5760  158.4864 C.ar    1  UNL1       -0.0024
      3 C         140.1667  144.9271  158.7844 C.ar    1  UNL1        0.0028
      4 C         141.3360  145.0528  159.7154 C.ar    1  UNL1        0.0369
      5 C         141.9259  143.8275  160.3484 C.ar    1  UNL1        0.1389
      6 C         141.3463  142.4764  160.0505 C.ar    1  UNL1        0.0343
      7 C         139.5973  140.9997  158.8215 C.3     1  UNL1        0.1239
      8 C         140.3902  138.8512  160.0483 C.2     1  UNL1        0.4100
      9 O         141.5195  138.7099  159.0712 O.2     1  UNL1       -0.2258
     10 N         139.4291  139.9961  159.9235 N.am    1  UNL1       -0.2363
     11 O         140.2221  137.8476  161.1503 O.3     1  UNL1       -0.4101
     12 C         143.3439  138.4307  166.2409 C.3     1  UNL1        0.0310
     13 C         142.5635  138.2849  164.9683 C.ar    1  UNL1       -0.0217
     14 C         143.1794  138.6859  163.6606 C.ar    1  UNL1       -0.0011
     15 C         142.3989  138.5401  162.3880 C.ar    1  UNL1        0.0373
     16 C         141.0025  137.9934  162.4230 C.ar    1  UNL1        0.1500
     17 C         140.3866  137.5924  163.7306 C.ar    1  UNL1        0.0373
     18 C         141.1671  137.7382  165.0033 C.ar    1  UNL1       -0.0011
     19 C         138.2999  140.1373  160.9007 C.3     1  UNL1        0.1388
     20 C         138.4264  141.0780  162.0621 C.2     1  UNL1        0.0706
     21 O         139.6831  141.0940  162.8809 O.co2   1  UNL1       -0.5474
     22 O         137.2962  142.0028  162.4049 O.co2   1  UNL1       -0.5474
     23 O         143.0952  143.9532  161.2794 O.3     1  UNL1       -0.4689
     24 C         142.9362  144.6619  162.5918 C.3     1  UNL1        0.2537
     25 C         142.0902  144.0574  163.6729 C.ar    1  UNL1        0.1359
     26 N         142.5561  143.0885  164.7191 N.ar    1  UNL1       -0.2093
     27 C         141.3837  142.7479  165.5905 C.ar    1  UNL1        0.2290
     28 O         140.1931  143.5063  165.0829 O.2     1  UNL1       -0.4391
     29 C         140.6298  144.3156  163.8978 C.ar    1  UNL1        0.1421
     30 C         139.7590  145.2236  163.0810 C.3     1  UNL1        0.0740
     31 C         141.3990  141.8132  166.7634 C.ar    1  UNL1        0.0537
     32 C         140.2400  140.8918  167.0034 C.ar    1  UNL1        0.0070
     33 C         140.2552  139.9569  168.1764 C.ar    1  UNL1        0.0298
     34 C         141.4297  139.9435  169.1094 C.ar    1  UNL1        0.1401
     35 F         141.4451  139.0087  170.2824 F       1  UNL1       -0.2042
     36 C         142.5888  140.8649  168.8694 C.ar    1  UNL1        0.0298
     37 C         142.5734  141.7998  167.6964 C.ar    1  UNL1        0.0070
@<TRIPOS>UNITY_ATOM_ATTR
21 1
charge -1
@<TRIPOS>BOND
     1    12    13    1
     2    13    14   ar
     3    14    15   ar
     4    15    16   ar
     5    16    11    1
     6    11     8    1
     7     8     9    2
     8     8    10   am
     9    10    19    1
    10    19    20    1
    11    20    21   ar
    12    20    22   ar
    13    10     7    1
    14     7     1    1
    15     1     2   ar
    16     2     3   ar
    17     3     4   ar
    18     4     5   ar
    19     5    23    1
    20    23    24    1
    21    24    25    1
    22    25    26   ar
    23    26    27   ar
    24    27    31    1
    25    31    32   ar
    26    32    33   ar
    27    33    34   ar
    28    34    35    1
    29    34    36   ar
    30    36    37   ar
    31    27    28   ar
    32    28    29   ar
    33    29    30    1
    34     5     6   ar
    35    16    17   ar
    36    17    18   ar
    37    18    13   ar
    38     6     1   ar
    39    29    25   ar
    40    37    31   ar
@<TRIPOS>MOLECULE
*****
 37 40 0 0 0
SMALL
GASTEIGER

@<TRIPOS>ATOM
      1 C         141.5595  138.3428  162.3305 C.ar    1  UNL1        0.0008
      2 C         140.6591  137.9219  163.4539 C.ar    1  UNL1       -0.0024
      3 C         139.1926  137.7268  163.2068 C.ar    1  UNL1        0.0028
      4 C         138.6263  137.9527  161.8363 C.ar    1  UNL1        0.0369
      5 C         139.5267  138.3737  160.7128 C.ar    1  UNL1        0.1389
      6 C         140.9933  138.5687  160.9599 C.ar    1  UNL1        0.0343
      7 C         143.0261  138.5379  162.5776 C.3     1  UNL1        0.1239
      8 C         143.1302  140.9198  163.6100 C.2     1  UNL1        0.4100
      9 O         142.3125  141.4498  162.4696 O.2     1  UNL1       -0.2258
     10 N         143.4870  139.4638  163.6640 N.am    1  UNL1       -0.2363
     11 O         143.5911  141.8457  164.6963 O.3     1  UNL1       -0.4101
     12 C         140.1525  142.7459  169.5301 C.3     1  UNL1        0.0310
     13 C         141.0122  142.5208  168.3217 C.ar    1  UNL1       -0.0217
     14 C         142.5049  142.4734  168.4614 C.ar    1  UNL1       -0.0011
     15 C         143.3645  142.2484  167.2530 C.ar    1  UNL1        0.0373
     16 C         142.7315  142.0708  165.9047 C.ar    1  UNL1        0.1500
     17 C         141.2388  142.1182  165.7650 C.ar    1  UNL1        0.0373
     18 C         140.3791  142.3432  166.9735 C.ar    1  UNL1       -0.0011
     19 C         144.3047  138.9338  164.8044 C.3     1  UNL1        0.1388
     20 C         143.6262  138.4362  166.0461 C.2     1  UNL1        0.0706
     21 O         142.1809  138.7551  166.2902 O.co2   1  UNL1       -0.5474
     22 O         144.3929  137.6196  167.0438 O.co2   1  UNL1       -0.5474
     23 O         138.9605  138.5995  159.3423 O.3     1  UNL1       -0.4689
     24 C         139.2703  139.8670  158.6024 C.3     1  UNL1        0.2537
     25 C         139.1811  141.1880  159.3073 C.ar    1  UNL1        0.1359
     26 N         139.0573  141.3904  160.7885 N.ar    1  UNL1       -0.2093
     27 C         138.9997  142.8660  161.0516 C.ar    1  UNL1        0.2290
     28 O         139.0880  143.5757  159.7330 O.2     1  UNL1       -0.4391
     29 C         139.2001  142.5386  158.6550 C.ar    1  UNL1        0.1421
     30 C         139.3116  142.8053  157.1831 C.3     1  UNL1        0.0740
     31 C         138.8757  143.5175  162.3969 C.ar    1  UNL1        0.0537
     32 C         139.9568  144.4334  162.8892 C.ar    1  UNL1        0.0070
     33 C         139.8329  145.0850  164.2346 C.ar    1  UNL1        0.0298
     34 C         138.6276  144.8207  165.0877 C.ar    1  UNL1        0.1401
     35 F         138.5036  145.4723  166.4331 F       1  UNL1       -0.2042
     36 C         137.5465  143.9048  164.5954 C.ar    1  UNL1        0.0298
     37 C         137.6706  143.2532  163.2500 C.ar    1  UNL1        0.0070
@<TRIPOS>UNITY_ATOM_ATTR
21 1
charge -1
@<TRIPOS>BOND
     1    12    13    1
     2    13    14   ar
     3    14    15   ar
     4    15    16   ar
     5    16    11    1
     6    11     8    1
     7     8     9    2
     8     8    10   am
     9    10    19    1
    10    19    20    1
    11    20    21   ar
    12    20    22   ar
    13    10     7    1
    14     7     1    1
    15     1     2   ar
    16     2     3   ar
    17     3     4   ar
    18     4     5   ar
    19     5    23    1
    20    23    24    1
    21    24    25    1
    22    25    26   ar
    23    26    27   ar
    24    27    31    1
    25    31    32   ar
    26    32    33   ar
    27    33    34   ar
    28    34    35    1
    29    34    36   ar
    30    36    37   ar
    31    27    28   ar
    32    28    29   ar
    33    29    30    1
    34     5     6   ar
    35    16    17   ar
    36    17    18   ar
    37    18    13   ar
    38     6     1   ar
    39    29    25   ar
    40    37    31   ar
@<TRIPOS>MOLECULE
*****
 37 40 0 0 0
SMALL
GASTEIGER

@<TRIPOS>ATOM
      1 C         141.4567  141.7178  158.5707 C.ar    1  UNL1        0.0008
      2 C         140.7560  142.3316  157.3951 C.ar    1  UNL1       -0.0024
      3 C         140.2391  143.7372  157.4801 C.ar    1  UNL1        0.0028
      4 C         140.4229  144.5289  158.7408 C.ar    1  UNL1        0.0369
      5 C         141.1237  143.9151  159.9165 C.ar    1  UNL1        0.1389
      6 C         141.6406  142.5096  159.8315 C.ar    1  UNL1        0.0343
      7 C         141.9736  140.3123  158.4857 C.3     1  UNL1        0.1239
      8 C         141.9451  138.7358  160.5507 C.2     1  UNL1        0.4100
      9 O         143.2318  139.3398  161.0296 O.2     1  UNL1       -0.2258
     10 N         141.3160  139.2220  159.2787 N.am    1  UNL1       -0.2363
     11 O         141.2874  137.6455  161.3436 O.3     1  UNL1       -0.4101
     12 C         138.2168  138.9900  166.3199 C.3     1  UNL1        0.0310
     13 C         138.9844  138.6539  165.0758 C.ar    1  UNL1       -0.0217
     14 C         138.7687  139.4504  163.8232 C.ar    1  UNL1       -0.0011
     15 C         139.5363  139.1143  162.5791 C.ar    1  UNL1        0.0373
     16 C         140.5198  137.9816  162.5877 C.ar    1  UNL1        0.1500
     17 C         140.7355  137.1851  163.8403 C.ar    1  UNL1        0.0373
     18 C         139.9678  137.5213  165.0844 C.ar    1  UNL1       -0.0011
     19 C         140.0292  138.6180  158.7997 C.3     1  UNL1        0.1388
     20 C         139.7967  138.4147  157.3319 C.2     1  UNL1        0.0706
     21 O         138.6354  139.0824  156.6569 O.co2   1  UNL1       -0.5474
     22 O         140.7254  137.5437  156.5390 O.co2   1  UNL1       -0.5474
     23 O         141.3075  144.7069  161.1772 O.3     1  UNL1       -0.4689
     24 C         140.2695  144.6473  162.2583 C.3     1  UNL1        0.2537
     25 C         140.4660  143.7415  163.4377 C.ar    1  UNL1        0.1359
     26 N         141.4250  142.5906  163.5153 N.ar    1  UNL1       -0.2093
     27 C         141.2898  141.9653  164.8721 C.ar    1  UNL1        0.2290
     28 O         140.2473  142.7297  165.6330 O.2     1  UNL1       -0.4391
     29 C         139.7382  143.8275  164.7464 C.ar    1  UNL1        0.1421
     30 C         138.6860  144.8344  165.1057 C.3     1  UNL1        0.0740
     31 C         142.0615  140.7832  165.3789 C.ar    1  UNL1        0.0537
     32 C         142.9784  140.0350  164.4573 C.ar    1  UNL1        0.0070
     33 C         143.7503  138.8528  164.9640 C.ar    1  UNL1        0.0298
     34 C         143.6051  138.4189  166.3926 C.ar    1  UNL1        0.1401
     35 F         144.3769  137.2368  166.8995 F       1  UNL1       -0.2042
     36 C         142.6882  139.1671  167.3142 C.ar    1  UNL1        0.0298
     37 C         141.9164  140.3493  166.8074 C.ar    1  UNL1        0.0070
@<TRIPOS>UNITY_ATOM_ATTR
21 1
charge -1
@<TRIPOS>BOND
     1    12    13    1
     2    13    14   ar
     3    14    15   ar
     4    15    16   ar
     5    16    11    1
     6    11     8    1
     7     8     9    2
     8     8    10   am
     9    10    19    1
    10    19    20    1
    11    20    21   ar
    12    20    22   ar
    13    10     7    1
    14     7     1    1
    15     1     2   ar
    16     2     3   ar
    17     3     4   ar
    18     4     5   ar
    19     5    23    1
    20    23    24    1
    21    24    25    1
    22    25    26   ar
    23    26    27   ar
    24    27    31    1
    25    31    32   ar
    26    32    33   ar
    27    33    34   ar
    28    34    35    1
    29    34    36   ar
    30    36    37   ar
    31    27    28   ar
    32    28    29   ar
    33    29    30    1
    34     5     6   ar
    35    16    17   ar
    36    17    18   ar
    37    18    13   ar
    38     6     1   ar
    39    29    25   ar
    40    37    31   ar
