@<TRIPOS>MOLECULE
*****
 30 33 0 0 0
SMALL
GASTEIGER

@<TRIPOS>ATOM
      1 C         140.9656  136.9673  163.6525 C.3     1  UNL1        0.0203
      2 C         140.1842  138.2356  163.8287 C.3     1  UNL1        0.0888
      3 N         140.1734  138.9313  165.1576 N.3     1  UNL1       -0.2713
      4 C         138.9922  138.7861  166.0706 C.3     1  UNL1        0.0749
      5 C         138.9814  139.4818  167.3995 C.3     1  UNL1        0.0485
      6 C         140.1518  140.3228  167.8153 C.3     1  UNL1        0.1096
      7 O         139.2708  140.4897  169.0178 O.3     1  UNL1       -0.3826
      8 C         141.3331  140.4680  166.9023 C.3     1  UNL1        0.0485
      9 C         141.3439  139.7723  165.5734 C.3     1  UNL1        0.0749
     10 H         138.4510  139.9871  168.8903 H       1  UNL1        0.2107
     11 C         141.0162  141.2217  168.6488 C.ar    1  UNL1        0.0019
     12 C         142.4191  140.8115  168.9860 C.ar    1  UNL1        0.0003
     13 C         143.2836  141.7104  169.8194 C.ar    1  UNL1        0.0294
     14 C         142.7451  143.0196  170.3157 C.ar    1  UNL1        0.1401
     15 F         143.6096  143.9185  171.1491 F       1  UNL1       -0.2042
     16 C         141.3423  143.4298  169.9785 C.ar    1  UNL1        0.0294
     17 C         140.4778  142.5308  169.1450 C.ar    1  UNL1        0.0003
     18 C         139.4137  138.8081  162.6762 C.3     1  UNL1        0.1470
     19 O         139.0230  137.9295  161.5249 O.3     1  UNL1       -0.3787
     20 H         138.5338  138.4524  160.8705 H       1  UNL1        0.2108
     21 C         139.0338  140.2593  162.6748 C.2     1  UNL1        0.0047
     22 C         137.6664  140.6770  163.1283 C.2     1  UNL1       -0.0217
     23 C         137.2866  142.1281  163.1270 C.3     1  UNL1        0.0722
     24 C         138.2742  143.1614  162.6721 C.2     1  UNL1        0.0932
     25 N         138.1852  144.6548  162.5617 N.am    1  UNL1       -0.1431
     26 C         139.4977  145.1599  162.0400 C.2     1  UNL1        0.4298
     27 O         139.8486  146.5943  161.7765 O.2     1  UNL1       -0.2238
     28 O         140.3977  143.9788  161.8279 O.3     1  UNL1       -0.4079
     29 C         139.6415  142.7437  162.2185 C.2     1  UNL1        0.1614
     30 C         140.0213  141.2926  162.2199 C.2     1  UNL1        0.0365
@<TRIPOS>BOND
     1     1     2    1
     2     2    18    1
     3    18    19    1
     4    18    21    1
     5    21    22    2
     6    22    23    1
     7    23    24    1
     8    24    25    2
     9    25    26    1
    10    26    27    2
    11    26    28    1
    12    28    29    1
    13    29    30    2
    14     2     3    1
    15     3     4    1
    16     4     5    1
    17     5     6    1
    18     6     7    1
    19     6    11    1
    20    11    12   ar
    21    12    13   ar
    22    13    14   ar
    23    14    15    1
    24    14    16   ar
    25    16    17   ar
    26     6     8    1
    27     8     9    1
    28    30    21    1
    29     9     3    1
    30    29    24    1
    31    17    11   ar
    32    19    20    1
    33     7    10    1
@<TRIPOS>MOLECULE
*****
 30 33 0 0 0
SMALL
GASTEIGER

@<TRIPOS>ATOM
      1 C         138.7079  138.5224  162.7365 C.3     1  UNL1        0.0203
      2 C         138.4638  139.8262  163.4369 C.3     1  UNL1        0.0888
      3 N         138.9086  140.0091  164.8577 N.3     1  UNL1       -0.2713
      4 C         138.3090  139.1680  165.9454 C.3     1  UNL1        0.0749
      5 C         138.7538  139.3508  167.3663 C.3     1  UNL1        0.0485
      6 C         139.7982  140.3747  167.6994 C.3     1  UNL1        0.1096
      7 O         139.5288  139.8226  169.0679 O.3     1  UNL1       -0.3826
      8 C         140.3978  141.2158  166.6117 C.3     1  UNL1        0.0485
      9 C         139.9530  141.0330  165.1908 C.3     1  UNL1        0.0749
     10 H         138.8532  139.1291  169.0095 H       1  UNL1        0.2107
     11 C         140.7490  141.2069  168.5078 C.ar    1  UNL1        0.0019
     12 C         140.3005  142.5217  169.0734 C.ar    1  UNL1        0.0003
     13 C         141.2513  143.3539  169.8818 C.ar    1  UNL1        0.0294
     14 C         142.6507  142.8711  170.1245 C.ar    1  UNL1        0.1401
     15 F         143.6014  143.7033  170.9329 F       1  UNL1       -0.2042
     16 C         143.0991  141.5563  169.5588 C.ar    1  UNL1        0.0294
     17 C         142.1483  140.7241  168.7505 C.ar    1  UNL1        0.0003
     18 C         137.7749  140.9471  162.7166 C.3     1  UNL1        0.1470
     19 O         136.4152  141.3998  163.1596 O.3     1  UNL1       -0.3787
     20 H         136.1157  142.1272  162.5920 H       1  UNL1        0.2108
     21 C         138.4456  141.6154  161.5531 C.2     1  UNL1        0.0047
     22 C         138.2057  141.1141  160.1599 C.2     1  UNL1       -0.0217
     23 C         138.8765  141.7823  158.9965 C.3     1  UNL1        0.0722
     24 C         139.7872  142.9518  159.2264 C.2     1  UNL1        0.0932
     25 N         140.5814  143.8061  158.2831 N.am    1  UNL1       -0.1431
     26 C         141.3122  144.8353  159.0934 C.2     1  UNL1        0.4298
     27 O         142.2252  145.8964  158.5545 O.2     1  UNL1       -0.2238
     28 O         140.9696  144.6172  160.5374 O.3     1  UNL1       -0.4079
     29 C         140.0271  143.4532  160.6196 C.2     1  UNL1        0.1614
     30 C         139.3563  142.7849  161.7829 C.2     1  UNL1        0.0365
@<TRIPOS>BOND
     1     1     2    1
     2     2    18    1
     3    18    19    1
     4    18    21    1
     5    21    22    2
     6    22    23    1
     7    23    24    1
     8    24    25    2
     9    25    26    1
    10    26    27    2
    11    26    28    1
    12    28    29    1
    13    29    30    2
    14     2     3    1
    15     3     4    1
    16     4     5    1
    17     5     6    1
    18     6     7    1
    19     6    11    1
    20    11    12   ar
    21    12    13   ar
    22    13    14   ar
    23    14    15    1
    24    14    16   ar
    25    16    17   ar
    26     6     8    1
    27     8     9    1
    28    30    21    1
    29     9     3    1
    30    29    24    1
    31    17    11   ar
    32    19    20    1
    33     7    10    1
@<TRIPOS>MOLECULE
*****
 30 33 0 0 0
SMALL
GASTEIGER

@<TRIPOS>ATOM
      1 C         139.6465  137.8539  164.5319 C.3     1  UNL1        0.0203
      2 C         139.0479  139.0994  165.1155 C.3     1  UNL1        0.0888
      3 N         138.8725  140.3191  164.2601 N.3     1  UNL1       -0.2713
      4 C         137.7105  141.2383  164.4939 C.3     1  UNL1        0.0749
      5 C         137.5352  142.4580  163.6385 C.3     1  UNL1        0.0485
      6 C         138.5218  142.7584  162.5494 C.3     1  UNL1        0.1096
      7 O         137.5900  143.9225  162.3851 O.3     1  UNL1       -0.3826
      8 C         139.6839  141.8392  162.3156 C.3     1  UNL1        0.0485
      9 C         139.8592  140.6195  163.1709 C.3     1  UNL1        0.0749
     10 H         136.8785  143.8622  163.0417 H       1  UNL1        0.2107
     11 C         139.1848  143.4631  161.4032 C.ar    1  UNL1        0.0019
     12 C         139.8969  144.7632  161.6328 C.ar    1  UNL1        0.0003
     13 C         140.5599  145.4679  160.4867 C.ar    1  UNL1        0.0294
     14 C         140.5109  144.8724  159.1107 C.ar    1  UNL1        0.1401
     15 F         141.1740  145.5772  157.9646 F       1  UNL1       -0.2042
     16 C         139.7989  143.5724  158.8811 C.ar    1  UNL1        0.0294
     17 C         139.1358  142.8677  160.0273 C.ar    1  UNL1        0.0003
     18 C         138.6248  139.1253  166.5543 C.3     1  UNL1        0.1470
     19 O         137.3593  138.4394  166.9764 O.3     1  UNL1       -0.3787
     20 H         137.2341  138.5512  167.9317 H       1  UNL1        0.2108
     21 C         139.4672  139.8370  167.5712 C.2     1  UNL1        0.0047
     22 C         138.9369  140.0680  168.9551 C.2     1  UNL1       -0.0217
     23 C         139.7793  140.7797  169.9719 C.3     1  UNL1        0.0722
     24 C         141.1519  141.2604  169.6047 C.2     1  UNL1        0.0932
     25 N         142.2043  141.9866  170.3891 N.am    1  UNL1       -0.1431
     26 C         143.3850  142.2043  169.4899 C.2     1  UNL1        0.4298
     27 O         144.6639  142.8928  169.8649 O.2     1  UNL1       -0.2238
     28 O         143.0623  141.6127  168.1497 O.3     1  UNL1       -0.4079
     29 C         141.6822  141.0294  168.2207 C.2     1  UNL1        0.1614
     30 C         140.8398  140.3177  167.2039 C.2     1  UNL1        0.0365
@<TRIPOS>BOND
     1     1     2    1
     2     2    18    1
     3    18    19    1
     4    18    21    1
     5    21    22    2
     6    22    23    1
     7    23    24    1
     8    24    25    2
     9    25    26    1
    10    26    27    2
    11    26    28    1
    12    28    29    1
    13    29    30    2
    14     2     3    1
    15     3     4    1
    16     4     5    1
    17     5     6    1
    18     6     7    1
    19     6    11    1
    20    11    12   ar
    21    12    13   ar
    22    13    14   ar
    23    14    15    1
    24    14    16   ar
    25    16    17   ar
    26     6     8    1
    27     8     9    1
    28    30    21    1
    29     9     3    1
    30    29    24    1
    31    17    11   ar
    32    19    20    1
    33     7    10    1
@<TRIPOS>MOLECULE
*****
 30 33 0 0 0
SMALL
GASTEIGER

@<TRIPOS>ATOM
      1 C         137.4729  140.8188  162.8711 C.3     1  UNL1        0.0203
      2 C         138.4207  139.8327  163.4873 C.3     1  UNL1        0.0888
      3 N         138.8691  140.0104  164.9076 N.3     1  UNL1       -0.2713
      4 C         138.2660  139.1715  165.9950 C.3     1  UNL1        0.0749
      5 C         138.7144  139.3492  167.4153 C.3     1  UNL1        0.0485
      6 C         139.7660  140.3657  167.7483 C.3     1  UNL1        0.1096
      7 O         139.4954  139.8132  169.1163 O.3     1  UNL1       -0.3826
      8 C         140.3692  141.2046  166.6608 C.3     1  UNL1        0.0485
      9 C         139.9207  141.0269  165.2405 C.3     1  UNL1        0.0749
     10 H         138.8151  139.1242  169.0581 H       1  UNL1        0.2107
     11 C         140.7236  141.1903  168.5563 C.ar    1  UNL1        0.0019
     12 C         140.3060  142.5364  169.0698 C.ar    1  UNL1        0.0003
     13 C         141.2636  143.3610  169.8778 C.ar    1  UNL1        0.0294
     14 C         142.6389  142.8396  170.1724 C.ar    1  UNL1        0.1401
     15 F         143.5965  143.6643  170.9804 F       1  UNL1       -0.2042
     16 C         143.0566  141.4936  169.6589 C.ar    1  UNL1        0.0294
     17 C         142.0989  140.6689  168.8508 C.ar    1  UNL1        0.0003
     18 C         138.9199  138.6692  162.6831 C.3     1  UNL1        0.1470
     19 O         138.0609  137.4514  162.5128 O.3     1  UNL1       -0.3787
     20 H         138.5296  136.7984  161.9699 H       1  UNL1        0.2108
     21 C         140.2784  138.7233  162.0491 C.2     1  UNL1        0.0047
     22 C         141.4361  138.0218  162.6953 C.2     1  UNL1       -0.0217
     23 C         142.7944  138.0760  162.0613 C.3     1  UNL1        0.0722
     24 C         142.9951  138.8317  160.7813 C.2     1  UNL1        0.0932
     25 N         144.2089  139.0596  159.9300 N.am    1  UNL1       -0.1431
     26 C         143.8014  139.9020  158.7577 C.2     1  UNL1        0.4298
     27 O         144.7015  140.3696  157.6526 O.2     1  UNL1       -0.2238
     28 O         142.3357  140.1947  158.8845 O.3     1  UNL1       -0.4079
     29 C         141.8374  139.5332  160.1351 C.2     1  UNL1        0.1614
     30 C         140.4790  139.4791  160.7691 C.2     1  UNL1        0.0365
@<TRIPOS>BOND
     1     1     2    1
     2     2    18    1
     3    18    19    1
     4    18    21    1
     5    21    22    2
     6    22    23    1
     7    23    24    1
     8    24    25    2
     9    25    26    1
    10    26    27    2
    11    26    28    1
    12    28    29    1
    13    29    30    2
    14     2     3    1
    15     3     4    1
    16     4     5    1
    17     5     6    1
    18     6     7    1
    19     6    11    1
    20    11    12   ar
    21    12    13   ar
    22    13    14   ar
    23    14    15    1
    24    14    16   ar
    25    16    17   ar
    26     6     8    1
    27     8     9    1
    28    30    21    1
    29     9     3    1
    30    29    24    1
    31    17    11   ar
    32    19    20    1
    33     7    10    1
@<TRIPOS>MOLECULE
*****
 30 33 0 0 0
SMALL
GASTEIGER

@<TRIPOS>ATOM
      1 C         144.2365  138.8595  162.4779 C.3     1  UNL1        0.0203
      2 C         144.2015  140.1071  163.3101 C.3     1  UNL1        0.0888
      3 N         143.6340  140.0671  164.6980 N.3     1  UNL1       -0.2713
      4 C         143.8614  138.8659  165.5670 C.3     1  UNL1        0.0749
      5 C         143.2938  138.8259  166.9549 C.3     1  UNL1        0.0485
      6 C         142.4988  139.9872  167.4738 C.3     1  UNL1        0.1096
      7 O         142.4434  139.0798  168.6669 O.3     1  UNL1       -0.3826
      8 C         142.2713  141.1886  166.6047 C.3     1  UNL1        0.0485
      9 C         142.8389  141.2285  165.2168 C.3     1  UNL1        0.0749
     10 H         142.9296  138.2628  168.4746 H       1  UNL1        0.2107
     11 C         141.6845  140.8335  168.4070 C.ar    1  UNL1        0.0019
     12 C         142.1658  142.2008  168.7926 C.ar    1  UNL1        0.0003
     13 C         141.3517  143.0470  169.7259 C.ar    1  UNL1        0.0294
     14 C         140.0560  142.5258  170.2736 C.ar    1  UNL1        0.1401
     15 F         139.2419  143.3720  171.2068 F       1  UNL1       -0.2042
     16 C         139.5747  141.1585  169.8880 C.ar    1  UNL1        0.0294
     17 C         140.3890  140.3123  168.9547 C.ar    1  UNL1        0.0003
     18 C         144.7342  141.3945  162.7544 C.3     1  UNL1        0.1470
     19 O         146.1607  141.7856  163.0034 O.3     1  UNL1       -0.3787
     20 H         146.3410  142.6386  162.5782 H       1  UNL1        0.2108
     21 C         143.8403  142.2909  161.9496 C.2     1  UNL1        0.0047
     22 C         143.9629  142.3265  160.4551 C.2     1  UNL1       -0.0217
     23 C         143.0690  143.2228  159.6505 C.3     1  UNL1        0.0722
     24 C         142.0525  144.0835  160.3404 C.2     1  UNL1        0.0932
     25 N         141.0413  145.0593  159.8154 N.am    1  UNL1       -0.1431
     26 C         140.2939  145.6268  160.9856 C.2     1  UNL1        0.4298
     27 O         139.1909  146.6412  160.9193 O.2     1  UNL1       -0.2238
     28 O         140.8430  145.0017  162.2337 O.3     1  UNL1       -0.4079
     29 C         141.9299  144.0479  161.8349 C.2     1  UNL1        0.1614
     30 C         142.8238  143.1516  162.6395 C.2     1  UNL1        0.0365
@<TRIPOS>BOND
     1     1     2    1
     2     2    18    1
     3    18    19    1
     4    18    21    1
     5    21    22    2
     6    22    23    1
     7    23    24    1
     8    24    25    2
     9    25    26    1
    10    26    27    2
    11    26    28    1
    12    28    29    1
    13    29    30    2
    14     2     3    1
    15     3     4    1
    16     4     5    1
    17     5     6    1
    18     6     7    1
    19     6    11    1
    20    11    12   ar
    21    12    13   ar
    22    13    14   ar
    23    14    15    1
    24    14    16   ar
    25    16    17   ar
    26     6     8    1
    27     8     9    1
    28    30    21    1
    29     9     3    1
    30    29    24    1
    31    17    11   ar
    32    19    20    1
    33     7    10    1
@<TRIPOS>MOLECULE
*****
 30 33 0 0 0
SMALL
GASTEIGER

@<TRIPOS>ATOM
      1 C         142.6306  141.9662  168.7768 C.3     1  UNL1        0.0203
      2 C         142.7019  141.3653  167.4041 C.3     1  UNL1        0.0888
      3 N         142.8036  142.2547  166.2005 N.3     1  UNL1       -0.2713
      4 C         144.0942  142.9537  165.8914 C.3     1  UNL1        0.0749
      5 C         144.1959  143.8430  164.6878 C.3     1  UNL1        0.0485
      6 C         143.0070  144.0334  163.7933 C.3     1  UNL1        0.1096
      7 O         144.0052  144.9034  163.0884 O.3     1  UNL1       -0.3826
      8 C         141.7163  143.3343  164.1024 C.3     1  UNL1        0.0485
      9 C         141.6146  142.4450  165.3060 C.3     1  UNL1        0.0749
     10 H         144.8491  144.8796  163.5661 H       1  UNL1        0.2107
     11 C         142.1647  144.5259  162.6539 C.ar    1  UNL1        0.0019
     12 C         141.0385  145.4823  162.9125 C.ar    1  UNL1        0.0003
     13 C         140.1962  145.9748  161.7733 C.ar    1  UNL1        0.0294
     14 C         140.4801  145.5108  160.3753 C.ar    1  UNL1        0.1401
     15 F         139.6378  146.0034  159.2361 F       1  UNL1       -0.2042
     16 C         141.6063  144.5544  160.1167 C.ar    1  UNL1        0.0294
     17 C         142.4486  144.0619  161.2560 C.ar    1  UNL1        0.0003
     18 C         142.6715  139.8752  167.2352 C.3     1  UNL1        0.1470
     19 O         143.0470  138.9827  168.3809 O.3     1  UNL1       -0.3787
     20 H         142.9744  138.0555  168.1056 H       1  UNL1        0.2108
     21 C         142.2656  139.2775  165.9206 C.2     1  UNL1        0.0047
     22 C         140.8511  138.8269  165.7064 C.2     1  UNL1       -0.0217
     23 C         140.4453  138.2293  164.3919 C.3     1  UNL1        0.0722
     24 C         141.4541  138.0822  163.2915 C.2     1  UNL1        0.0932
     25 N         141.3479  137.5340  161.8993 N.am    1  UNL1       -0.1431
     26 C         142.6970  137.6458  161.2531 C.2     1  UNL1        0.4298
     27 O         143.0451  137.2158  159.8588 O.2     1  UNL1       -0.2238
     28 O         143.6368  138.2631  162.2459 O.3     1  UNL1       -0.4079
     29 C         142.8686  138.5328  163.5057 C.2     1  UNL1        0.1614
     30 C         143.2744  139.1305  164.8203 C.2     1  UNL1        0.0365
@<TRIPOS>BOND
     1     1     2    1
     2     2    18    1
     3    18    19    1
     4    18    21    1
     5    21    22    2
     6    22    23    1
     7    23    24    1
     8    24    25    2
     9    25    26    1
    10    26    27    2
    11    26    28    1
    12    28    29    1
    13    29    30    2
    14     2     3    1
    15     3     4    1
    16     4     5    1
    17     5     6    1
    18     6     7    1
    19     6    11    1
    20    11    12   ar
    21    12    13   ar
    22    13    14   ar
    23    14    15    1
    24    14    16   ar
    25    16    17   ar
    26     6     8    1
    27     8     9    1
    28    30    21    1
    29     9     3    1
    30    29    24    1
    31    17    11   ar
    32    19    20    1
    33     7    10    1
@<TRIPOS>MOLECULE
*****
 30 33 0 0 0
SMALL
GASTEIGER

@<TRIPOS>ATOM
      1 C         142.9015  142.3322  169.1146 C.3     1  UNL1        0.0203
      2 C         142.7800  141.6362  167.7914 C.3     1  UNL1        0.0888
      3 N         142.8857  142.4222  166.5181 N.3     1  UNL1       -0.2713
      4 C         144.2177  142.9444  166.0674 C.3     1  UNL1        0.0749
      5 C         144.3234  143.7304  164.7942 C.3     1  UNL1        0.0485
      6 C         143.0971  143.9942  163.9717 C.3     1  UNL1        0.1096
      7 O         144.1275  144.6922  163.1343 O.3     1  UNL1       -0.3826
      8 C         141.7650  143.4720  164.4224 C.3     1  UNL1        0.0485
      9 C         141.6593  142.6860  165.6956 C.3     1  UNL1        0.0749
     10 H         144.9980  144.6043  163.5531 H       1  UNL1        0.2107
     11 C         142.2286  144.5004  162.8583 C.ar    1  UNL1        0.0019
     12 C         141.0929  145.4334  163.1579 C.ar    1  UNL1        0.0003
     13 C         140.2244  145.9396  162.0447 C.ar    1  UNL1        0.0294
     14 C         140.4917  145.5128  160.6316 C.ar    1  UNL1        0.1401
     15 F         139.6232  146.0190  159.5184 F       1  UNL1       -0.2042
     16 C         141.6273  144.5798  160.3320 C.ar    1  UNL1        0.0294
     17 C         142.4958  144.0736  161.4454 C.ar    1  UNL1        0.0003
     18 C         142.5530  140.1544  167.7413 C.3     1  UNL1        0.1470
     19 O         142.8089  139.3149  168.9578 O.3     1  UNL1       -0.3787
     20 H         142.6141  138.3862  168.7566 H       1  UNL1        0.2108
     21 C         142.0700  139.5120  166.4748 C.2     1  UNL1        0.0047
     22 C         143.0495  138.8646  165.5413 C.2     1  UNL1       -0.0217
     23 C         142.5664  138.2222  164.2749 C.3     1  UNL1        0.0722
     24 C         141.1038  138.2272  163.9419 C.2     1  UNL1        0.0932
     25 N         140.3382  137.6770  162.7751 N.am    1  UNL1       -0.1431
     26 C         138.8855  137.9844  162.9876 C.2     1  UNL1        0.4298
     27 O         137.7622  137.6164  162.0641 O.2     1  UNL1       -0.2238
     28 O         138.7533  138.7245  164.2856 O.3     1  UNL1       -0.4079
     29 C         140.1243  138.8745  164.8754 C.2     1  UNL1        0.1614
     30 C         140.6074  139.5169  166.1418 C.2     1  UNL1        0.0365
@<TRIPOS>BOND
     1     1     2    1
     2     2    18    1
     3    18    19    1
     4    18    21    1
     5    21    22    2
     6    22    23    1
     7    23    24    1
     8    24    25    2
     9    25    26    1
    10    26    27    2
    11    26    28    1
    12    28    29    1
    13    29    30    2
    14     2     3    1
    15     3     4    1
    16     4     5    1
    17     5     6    1
    18     6     7    1
    19     6    11    1
    20    11    12   ar
    21    12    13   ar
    22    13    14   ar
    23    14    15    1
    24    14    16   ar
    25    16    17   ar
    26     6     8    1
    27     8     9    1
    28    30    21    1
    29     9     3    1
    30    29    24    1
    31    17    11   ar
    32    19    20    1
    33     7    10    1
@<TRIPOS>MOLECULE
*****
 30 33 0 0 0
SMALL
GASTEIGER

@<TRIPOS>ATOM
      1 C         138.4760  138.0220  162.6385 C.3     1  UNL1        0.0203
      2 C         139.7809  138.4662  163.2301 C.3     1  UNL1        0.0888
      3 N         139.8282  138.9881  164.6356 N.3     1  UNL1       -0.2713
      4 C         138.7501  138.6167  165.6102 C.3     1  UNL1        0.0749
      5 C         138.7974  139.1386  167.0157 C.3     1  UNL1        0.0485
      6 C         139.9227  140.0319  167.4465 C.3     1  UNL1        0.1096
      7 O         139.1411  139.9623  168.7250 O.3     1  UNL1       -0.3826
      8 C         141.0008  140.4033  166.4719 C.3     1  UNL1        0.0485
      9 C         140.9535  139.8814  165.0664 C.3     1  UNL1        0.0749
     10 H         138.3600  139.4018  168.5964 H       1  UNL1        0.2107
     11 C         140.7766  140.9011  168.3215 C.ar    1  UNL1        0.0019
     12 C         140.3104  142.2768  168.6956 C.ar    1  UNL1        0.0003
     13 C         141.1642  143.1460  169.5705 C.ar    1  UNL1        0.0294
     14 C         142.4844  142.6394  170.0712 C.ar    1  UNL1        0.1401
     15 F         143.3382  143.5086  170.9461 F       1  UNL1       -0.2042
     16 C         142.9506  141.2637  169.6970 C.ar    1  UNL1        0.0294
     17 C         142.0967  140.3945  168.8221 C.ar    1  UNL1        0.0003
     18 C         141.0385  138.3884  162.4163 C.3     1  UNL1        0.1470
     19 O         141.6768  137.0579  162.1474 O.3     1  UNL1       -0.3787
     20 H         142.4751  137.1847  161.6111 H       1  UNL1        0.2108
     21 C         141.6578  139.6412  161.8712 C.2     1  UNL1        0.0047
     22 C         143.1494  139.8001  161.8672 C.2     1  UNL1       -0.0217
     23 C         143.7686  141.0529  161.3222 C.3     1  UNL1        0.0722
     24 C         142.8964  142.1467  160.7812 C.2     1  UNL1        0.0932
     25 N         143.2185  143.4844  160.1836 N.am    1  UNL1       -0.1431
     26 C         141.9259  144.1522  159.8184 C.2     1  UNL1        0.4298
     27 O         141.7799  145.5070  159.1913 O.2     1  UNL1       -0.2238
     28 O         140.8051  143.2272  160.1902 O.3     1  UNL1       -0.4079
     29 C         141.4049  141.9878  160.7852 C.2     1  UNL1        0.1614
     30 C         140.7856  140.7351  161.3302 C.2     1  UNL1        0.0365
@<TRIPOS>BOND
     1     1     2    1
     2     2    18    1
     3    18    19    1
     4    18    21    1
     5    21    22    2
     6    22    23    1
     7    23    24    1
     8    24    25    2
     9    25    26    1
    10    26    27    2
    11    26    28    1
    12    28    29    1
    13    29    30    2
    14     2     3    1
    15     3     4    1
    16     4     5    1
    17     5     6    1
    18     6     7    1
    19     6    11    1
    20    11    12   ar
    21    12    13   ar
    22    13    14   ar
    23    14    15    1
    24    14    16   ar
    25    16    17   ar
    26     6     8    1
    27     8     9    1
    28    30    21    1
    29     9     3    1
    30    29    24    1
    31    17    11   ar
    32    19    20    1
    33     7    10    1
@<TRIPOS>MOLECULE
*****
 30 33 0 0 0
SMALL
GASTEIGER

@<TRIPOS>ATOM
      1 C         144.5681  143.5940  165.3796 C.3     1  UNL1        0.0203
      2 C         143.3265  142.8071  165.0812 C.3     1  UNL1        0.0888
      3 N         142.3492  143.3071  164.0590 N.3     1  UNL1       -0.2713
      4 C         141.1345  144.0722  164.4940 C.3     1  UNL1        0.0749
      5 C         140.1573  144.5723  163.4718 C.3     1  UNL1        0.0485
      6 C         140.3946  144.3073  162.0147 C.3     1  UNL1        0.1096
      7 O         139.1071  145.0727  161.9339 O.3     1  UNL1       -0.3826
      8 C         141.6093  143.5421  161.5796 C.3     1  UNL1        0.0485
      9 C         142.5866  143.0421  162.6018 C.3     1  UNL1        0.0749
     10 H         138.8210  145.3195  162.8273 H       1  UNL1        0.2107
     11 C         140.1848  144.3081  160.5294 C.ar    1  UNL1        0.0019
     12 C         139.5061  143.1458  159.8672 C.ar    1  UNL1        0.0003
     13 C         139.2963  143.1466  158.3820 C.ar    1  UNL1        0.0294
     14 C         139.7652  144.3097  157.5589 C.ar    1  UNL1        0.1401
     15 F         139.5554  144.3104  156.0736 F       1  UNL1       -0.2042
     16 C         140.4439  145.4719  158.2211 C.ar    1  UNL1        0.0294
     17 C         140.6537  145.4711  159.7063 C.ar    1  UNL1        0.0003
     18 C         143.0621  141.5201  165.8049 C.3     1  UNL1        0.1470
     19 O         143.6943  140.2468  165.3261 O.3     1  UNL1       -0.3787
     20 H         143.4219  139.5145  165.9009 H       1  UNL1        0.2108
     21 C         142.1656  141.5063  167.0075 C.2     1  UNL1        0.0047
     22 C         142.3849  142.4907  168.1177 C.2     1  UNL1       -0.0217
     23 C         141.4884  142.4769  169.3202 C.3     1  UNL1        0.0722
     24 C         140.3726  141.4787  169.4124 C.2     1  UNL1        0.0932
     25 N         139.3354  141.2272  170.4666 N.am    1  UNL1       -0.1431
     26 C         138.4751  140.0874  170.0077 C.2     1  UNL1        0.4298
     27 O         137.3132  139.5030  170.7552 O.2     1  UNL1       -0.2238
     28 O         138.9806  139.6344  168.6700 O.3     1  UNL1       -0.4079
     29 C         140.1533  140.4943  168.3022 C.2     1  UNL1        0.1614
     30 C         141.0498  140.5081  167.0997 C.2     1  UNL1        0.0365
@<TRIPOS>BOND
     1     1     2    1
     2     2    18    1
     3    18    19    1
     4    18    21    1
     5    21    22    2
     6    22    23    1
     7    23    24    1
     8    24    25    2
     9    25    26    1
    10    26    27    2
    11    26    28    1
    12    28    29    1
    13    29    30    2
    14     2     3    1
    15     3     4    1
    16     4     5    1
    17     5     6    1
    18     6     7    1
    19     6    11    1
    20    11    12   ar
    21    12    13   ar
    22    13    14   ar
    23    14    15    1
    24    14    16   ar
    25    16    17   ar
    26     6     8    1
    27     8     9    1
    28    30    21    1
    29     9     3    1
    30    29    24    1
    31    17    11   ar
    32    19    20    1
    33     7    10    1
