@<TRIPOS>MOLECULE
*****
 34 38 0 0 0
SMALL
GASTEIGER

@<TRIPOS>ATOM
      1 O         138.1712  139.1209  167.9618 O.2     1  UNL1       -0.2699
      2 C         139.5030  139.6678  167.5409 C.2     1  UNL1        0.2496
      3 N         140.0124  139.4159  166.1527 N.am    1  UNL1       -0.2660
      4 C         141.3443  139.9628  165.7318 C.3     1  UNL1        0.1160
      5 C         141.8537  139.7109  164.3436 C.3     1  UNL1        0.1197
      6 N         141.0312  138.9122  163.3763 N.am    1  UNL1       -0.2555
      7 C         139.6994  138.3654  163.7972 C.2     1  UNL1        0.2497
      8 O         138.8770  137.5667  162.8299 O.2     1  UNL1       -0.2727
      9 C         139.1900  138.6172  165.1854 C.3     1  UNL1        0.1799
     10 C         140.3255  140.4665  168.5082 C.ar    1  UNL1        0.0581
     11 C         141.3679  139.7871  169.3459 C.ar    1  UNL1        0.0343
     12 C         142.1902  140.5859  170.3132 C.ar    1  UNL1        0.1425
     13 F         143.2327  139.9065  171.1510 F       1  UNL1       -0.2041
     14 C         141.9702  142.0640  170.4428 C.ar    1  UNL1        0.0592
     15 C         140.9278  142.7434  169.6051 C.ar    1  UNL1        0.1425
     16 F         140.7078  144.2215  169.7346 F       1  UNL1       -0.2041
     17 C         140.1054  141.9446  168.6378 C.ar    1  UNL1        0.0343
     18 C         141.5406  138.6604  161.9881 C.ar    1  UNL1        0.0541
     19 C         140.8359  139.2640  160.8096 C.ar    1  UNL1        0.0180
     20 C         141.3454  139.0121  159.4214 C.ar    1  UNL1        0.0382
     21 C         142.5595  138.1567  159.2118 C.ar    1  UNL1        0.1385
     22 C         143.2643  137.5531  160.3903 C.ar    1  UNL1        0.0382
     23 C         142.7549  137.8049  161.7785 C.ar    1  UNL1        0.0180
     24 O         143.0689  137.9049  157.8236 O.3     1  UNL1       -0.4791
     25 C         142.6553  136.6658  157.0862 C.3     1  UNL1        0.1687
     26 C         141.5641  136.7333  156.0593 C.3     1  UNL1        0.0609
     27 C         141.1505  135.4943  155.3219 C.3     1  UNL1        0.0758
     28 N         141.8282  134.1878  155.6113 N.3     1  UNL1       -0.2737
     29 C         142.9195  134.1203  156.6383 C.3     1  UNL1        0.0758
     30 C         143.3331  135.3593  157.3757 C.3     1  UNL1        0.0609
     31 C         141.4146  132.9488  154.8739 C.3     1  UNL1        0.0575
     32 C         140.9769  132.6453  153.4716 C.3     1  UNL1        0.0160
     33 C         140.8297  131.1966  153.8311 C.3     1  UNL1        0.0028
     34 C         141.2673  131.4999  155.2334 C.3     1  UNL1        0.0160
@<TRIPOS>BOND
     1     1     2    2
     2     2    10    1
     3    10    11   ar
     4    11    12   ar
     5    12    13    1
     6    12    14   ar
     7    14    15   ar
     8    15    16    1
     9    15    17   ar
    10     2     3   am
    11     3     4    1
    12     4     5    1
    13     5     6    1
    14     6    18    1
    15    18    19   ar
    16    19    20   ar
    17    20    21   ar
    18    21    24    1
    19    24    25    1
    20    25    26    1
    21    26    27    1
    22    27    28    1
    23    28    31    1
    24    31    32    1
    25    32    33    1
    26    33    34    1
    27    28    29    1
    28    29    30    1
    29    21    22   ar
    30    22    23   ar
    31     6     7   am
    32     7     8    2
    33     7     9    1
    34    17    10   ar
    35     9     3    1
    36    23    18   ar
    37    30    25    1
    38    34    31    1
@<TRIPOS>MOLECULE
*****
 34 38 0 0 0
SMALL
GASTEIGER

@<TRIPOS>ATOM
      1 O         138.2154  139.1297  168.0353 O.2     1  UNL1       -0.2699
      2 C         139.5523  139.6634  167.6138 C.2     1  UNL1        0.2496
      3 N         140.0501  139.4230  166.2194 N.am    1  UNL1       -0.2660
      4 C         141.3871  139.9568  165.7978 C.3     1  UNL1        0.1160
      5 C         141.8849  139.7163  164.4034 C.3     1  UNL1        0.1197
      6 N         141.0457  138.9422  163.4305 N.am    1  UNL1       -0.2555
      7 C         139.7088  138.4084  163.8521 C.2     1  UNL1        0.2497
      8 O         138.8697  137.6343  162.8792 O.2     1  UNL1       -0.2727
      9 C         139.2110  138.6488  165.2464 C.3     1  UNL1        0.1799
     10 C         140.3915  140.4376  168.5867 C.ar    1  UNL1        0.0581
     11 C         140.1765  141.9125  168.7548 C.ar    1  UNL1        0.0343
     12 C         141.0156  142.6866  169.7277 C.ar    1  UNL1        0.1425
     13 F         140.8006  144.1617  169.8959 F       1  UNL1       -0.2041
     14 C         142.0698  141.9858  170.5325 C.ar    1  UNL1        0.0592
     15 C         142.2848  140.5109  170.3644 C.ar    1  UNL1        0.1425
     16 F         143.3389  139.8101  171.1691 F       1  UNL1       -0.2041
     17 C         141.4456  139.7368  169.3915 C.ar    1  UNL1        0.0343
     18 C         141.5436  138.7018  162.0361 C.ar    1  UNL1        0.0541
     19 C         142.7281  137.8108  161.8058 C.ar    1  UNL1        0.0180
     20 C         143.2259  137.5704  160.4114 C.ar    1  UNL1        0.0382
     21 C         142.5392  138.2210  159.2473 C.ar    1  UNL1        0.1385
     22 C         141.3546  139.1120  159.4776 C.ar    1  UNL1        0.0382
     23 C         140.8568  139.3524  160.8720 C.ar    1  UNL1        0.0180
     24 O         143.0370  137.9806  157.8529 O.3     1  UNL1       -0.4791
     25 C         142.6376  136.7353  157.1182 C.3     1  UNL1        0.1687
     26 C         143.3398  135.4402  157.4005 C.3     1  UNL1        0.0609
     27 C         142.9405  134.1949  156.6658 C.3     1  UNL1        0.0758
     28 N         141.8390  134.2446  155.6489 N.3     1  UNL1       -0.2737
     29 C         141.1367  135.5398  155.3666 C.3     1  UNL1        0.0758
     30 C         141.5361  136.7851  156.1013 C.3     1  UNL1        0.0609
     31 C         141.4397  132.9993  154.9142 C.3     1  UNL1        0.0575
     32 C         141.2787  131.5548  155.2847 C.3     1  UNL1        0.0160
     33 C         140.8749  131.2382  153.8753 C.3     1  UNL1        0.0028
     34 C         141.0359  132.6828  153.5047 C.3     1  UNL1        0.0160
@<TRIPOS>BOND
     1     1     2    2
     2     2    10    1
     3    10    11   ar
     4    11    12   ar
     5    12    13    1
     6    12    14   ar
     7    14    15   ar
     8    15    16    1
     9    15    17   ar
    10     2     3   am
    11     3     4    1
    12     4     5    1
    13     5     6    1
    14     6    18    1
    15    18    19   ar
    16    19    20   ar
    17    20    21   ar
    18    21    24    1
    19    24    25    1
    20    25    26    1
    21    26    27    1
    22    27    28    1
    23    28    31    1
    24    31    32    1
    25    32    33    1
    26    33    34    1
    27    28    29    1
    28    29    30    1
    29    21    22   ar
    30    22    23   ar
    31     6     7   am
    32     7     8    2
    33     7     9    1
    34    17    10   ar
    35     9     3    1
    36    23    18   ar
    37    30    25    1
    38    34    31    1
@<TRIPOS>MOLECULE
*****
 34 38 0 0 0
SMALL
GASTEIGER

@<TRIPOS>ATOM
      1 O         138.1586  139.1253  168.1071 O.2     1  UNL1       -0.2699
      2 C         139.4428  139.7042  167.5919 C.2     1  UNL1        0.2496
      3 N         139.8338  139.5038  166.1577 N.am    1  UNL1       -0.2660
      4 C         141.1181  140.0827  165.6425 C.3     1  UNL1        0.1160
      5 C         141.5090  139.8823  164.2082 C.3     1  UNL1        0.1197
      6 N         140.6157  139.1030  163.2893 N.am    1  UNL1       -0.2555
      7 C         139.3314  138.5240  163.8045 C.2     1  UNL1        0.2497
      8 O         138.4380  137.7447  162.8855 O.2     1  UNL1       -0.2727
      9 C         138.9404  138.7244  165.2387 C.3     1  UNL1        0.1799
     10 C         140.3362  140.4836  168.5110 C.ar    1  UNL1        0.0581
     11 C         140.1100  141.9531  168.7088 C.ar    1  UNL1        0.0343
     12 C         141.0033  142.7324  169.6279 C.ar    1  UNL1        0.1425
     13 F         140.7771  144.2020  169.8258 F       1  UNL1       -0.2041
     14 C         142.1229  142.0421  170.3490 C.ar    1  UNL1        0.0592
     15 C         142.3491  140.5726  170.1511 C.ar    1  UNL1        0.1425
     16 F         143.4687  139.8823  170.8723 F       1  UNL1       -0.2041
     17 C         141.4558  139.7933  169.2321 C.ar    1  UNL1        0.0343
     18 C         141.0066  138.9025  161.8551 C.ar    1  UNL1        0.0541
     19 C         142.1709  138.0216  161.5111 C.ar    1  UNL1        0.0180
     20 C         142.5618  137.8212  160.0769 C.ar    1  UNL1        0.0382
     21 C         141.7885  138.5017  158.9866 C.ar    1  UNL1        0.1385
     22 C         140.6242  139.3827  159.3305 C.ar    1  UNL1        0.0382
     23 C         140.2332  139.5831  160.7647 C.ar    1  UNL1        0.0180
     24 O         142.1794  138.3013  157.5524 O.3     1  UNL1       -0.4791
     25 C         143.3373  139.0620  156.9773 C.3     1  UNL1        0.1687
     26 C         143.9688  138.6096  155.6942 C.3     1  UNL1        0.0609
     27 C         145.1266  139.3703  155.1191 C.3     1  UNL1        0.0758
     28 N         145.6531  140.5833  155.8272 N.3     1  UNL1       -0.2737
     29 C         145.0216  141.0357  157.1104 C.3     1  UNL1        0.0758
     30 C         143.8637  140.2751  157.6855 C.3     1  UNL1        0.0609
     31 C         146.8109  141.3440  155.2521 C.3     1  UNL1        0.0575
     32 C         148.0252  142.0169  155.8202 C.3     1  UNL1        0.0160
     33 C         148.4484  142.4197  154.4388 C.3     1  UNL1        0.0028
     34 C         147.2342  141.7468  153.8705 C.3     1  UNL1        0.0160
@<TRIPOS>BOND
     1     1     2    2
     2     2    10    1
     3    10    11   ar
     4    11    12   ar
     5    12    13    1
     6    12    14   ar
     7    14    15   ar
     8    15    16    1
     9    15    17   ar
    10     2     3   am
    11     3     4    1
    12     4     5    1
    13     5     6    1
    14     6    18    1
    15    18    19   ar
    16    19    20   ar
    17    20    21   ar
    18    21    24    1
    19    24    25    1
    20    25    26    1
    21    26    27    1
    22    27    28    1
    23    28    31    1
    24    31    32    1
    25    32    33    1
    26    33    34    1
    27    28    29    1
    28    29    30    1
    29    21    22   ar
    30    22    23   ar
    31     6     7   am
    32     7     8    2
    33     7     9    1
    34    17    10   ar
    35     9     3    1
    36    23    18   ar
    37    30    25    1
    38    34    31    1
@<TRIPOS>MOLECULE
*****
 34 38 0 0 0
SMALL
GASTEIGER

@<TRIPOS>ATOM
      1 O         143.2146  138.7659  168.2487 O.2     1  UNL1       -0.2699
      2 C         142.4570  139.9272  167.6763 C.2     1  UNL1        0.2496
      3 N         142.6222  140.2912  166.2306 N.am    1  UNL1       -0.2660
      4 C         141.8646  141.4524  165.6582 C.3     1  UNL1        0.1160
      5 C         142.0299  141.8163  164.2124 C.3     1  UNL1        0.1197
      6 N         142.9528  141.0191  163.3390 N.am    1  UNL1       -0.2555
      7 C         143.7104  139.8579  163.9114 C.2     1  UNL1        0.2497
      8 O         144.6333  139.0607  163.0381 O.2     1  UNL1       -0.2727
      9 C         143.5451  139.4939  165.3571 C.3     1  UNL1        0.1799
     10 C         141.5341  140.7244  168.5497 C.ar    1  UNL1        0.0581
     11 C         140.2349  140.1304  169.0071 C.ar    1  UNL1        0.0343
     12 C         139.3121  140.9277  169.8805 C.ar    1  UNL1        0.1425
     13 F         138.0128  140.3337  170.3379 F       1  UNL1       -0.2041
     14 C         139.6885  142.3188  170.2964 C.ar    1  UNL1        0.0592
     15 C         140.9876  142.9128  169.8390 C.ar    1  UNL1        0.1425
     16 F         141.3640  144.3039  170.2549 F       1  UNL1       -0.2041
     17 C         141.9105  142.1155  168.9656 C.ar    1  UNL1        0.0343
     18 C         143.1181  141.3831  161.8933 C.ar    1  UNL1        0.0541
     19 C         144.3207  142.1615  161.4486 C.ar    1  UNL1        0.0180
     20 C         144.4859  142.5255  160.0028 C.ar    1  UNL1        0.0382
     21 C         143.4485  142.1111  159.0018 C.ar    1  UNL1        0.1385
     22 C         142.2459  141.3327  159.4465 C.ar    1  UNL1        0.0382
     23 C         142.0807  140.9687  160.8922 C.ar    1  UNL1        0.0180
     24 O         143.6138  142.4751  157.5561 O.3     1  UNL1       -0.4791
     25 C         142.8080  143.5953  156.9678 C.3     1  UNL1        0.1687
     26 C         142.2748  144.6815  157.8542 C.3     1  UNL1        0.0609
     27 C         141.4690  145.8017  157.2660 C.3     1  UNL1        0.0758
     28 N         141.1966  145.8356  155.7914 N.3     1  UNL1       -0.2737
     29 C         141.7298  144.7494  154.9049 C.3     1  UNL1        0.0758
     30 C         142.5356  143.6292  155.4931 C.3     1  UNL1        0.0609
     31 C         140.3908  146.9558  155.2031 C.3     1  UNL1        0.0575
     32 C         140.4139  147.7128  153.9084 C.3     1  UNL1        0.0160
     33 C         139.2513  148.5399  154.3713 C.3     1  UNL1        0.0028
     34 C         139.2282  147.7829  155.6660 C.3     1  UNL1        0.0160
@<TRIPOS>BOND
     1     1     2    2
     2     2    10    1
     3    10    11   ar
     4    11    12   ar
     5    12    13    1
     6    12    14   ar
     7    14    15   ar
     8    15    16    1
     9    15    17   ar
    10     2     3   am
    11     3     4    1
    12     4     5    1
    13     5     6    1
    14     6    18    1
    15    18    19   ar
    16    19    20   ar
    17    20    21   ar
    18    21    24    1
    19    24    25    1
    20    25    26    1
    21    26    27    1
    22    27    28    1
    23    28    31    1
    24    31    32    1
    25    32    33    1
    26    33    34    1
    27    28    29    1
    28    29    30    1
    29    21    22   ar
    30    22    23   ar
    31     6     7   am
    32     7     8    2
    33     7     9    1
    34    17    10   ar
    35     9     3    1
    36    23    18   ar
    37    30    25    1
    38    34    31    1
@<TRIPOS>MOLECULE
*****
 34 38 0 0 0
SMALL
GASTEIGER

@<TRIPOS>ATOM
      1 O         143.2192  138.7656  168.2544 O.2     1  UNL1       -0.2699
      2 C         142.4637  139.9270  167.6798 C.2     1  UNL1        0.2496
      3 N         142.6295  140.2880  166.2334 N.am    1  UNL1       -0.2660
      4 C         141.8740  141.4495  165.6588 C.3     1  UNL1        0.1160
      5 C         142.0399  141.8104  164.2123 C.3     1  UNL1        0.1197
      6 N         142.9613  141.0098  163.3404 N.am    1  UNL1       -0.2555
      7 C         143.7168  139.8484  163.9150 C.2     1  UNL1        0.2497
      8 O         144.6382  139.0478  163.0432 O.2     1  UNL1       -0.2727
      9 C         143.5509  139.4874  165.3614 C.3     1  UNL1        0.1799
     10 C         141.5423  140.7276  168.5517 C.ar    1  UNL1        0.0581
     11 C         141.9231  142.1173  168.9684 C.ar    1  UNL1        0.0343
     12 C         141.0017  142.9178  169.8403 C.ar    1  UNL1        0.1425
     13 F         141.3824  144.3076  170.2570 F       1  UNL1       -0.2041
     14 C         139.6995  142.3286  170.2955 C.ar    1  UNL1        0.0592
     15 C         139.3188  140.9389  169.8788 C.ar    1  UNL1        0.1425
     16 F         138.0166  140.3496  170.3340 F       1  UNL1       -0.2041
     17 C         140.2401  140.1384  169.0069 C.ar    1  UNL1        0.0343
     18 C         143.1271  141.3708  161.8940 C.ar    1  UNL1        0.0541
     19 C         144.3319  142.1448  161.4475 C.ar    1  UNL1        0.0180
     20 C         144.4977  142.5057  160.0010 C.ar    1  UNL1        0.0382
     21 C         143.4588  142.0927  159.0011 C.ar    1  UNL1        0.1385
     22 C         142.2540  141.3187  159.4476 C.ar    1  UNL1        0.0382
     23 C         142.0881  140.9577  160.8940 C.ar    1  UNL1        0.0180
     24 O         143.6246  142.4536  157.5547 O.3     1  UNL1       -0.4791
     25 C         142.8219  143.5750  156.9647 C.3     1  UNL1        0.1687
     26 C         142.2928  144.6648  157.8492 C.3     1  UNL1        0.0609
     27 C         141.4901  145.7862  157.2592 C.3     1  UNL1        0.0758
     28 N         141.2164  145.8178  155.7847 N.3     1  UNL1       -0.2737
     29 C         141.7456  144.7280  154.9002 C.3     1  UNL1        0.0758
     30 C         142.5483  143.6066  155.4901 C.3     1  UNL1        0.0609
     31 C         140.4137  146.9392  155.1947 C.3     1  UNL1        0.0575
     32 C         140.4363  147.6916  153.8973 C.3     1  UNL1        0.0160
     33 C         139.2785  148.5251  154.3604 C.3     1  UNL1        0.0028
     34 C         139.2558  147.7728  155.6579 C.3     1  UNL1        0.0160
@<TRIPOS>BOND
     1     1     2    2
     2     2    10    1
     3    10    11   ar
     4    11    12   ar
     5    12    13    1
     6    12    14   ar
     7    14    15   ar
     8    15    16    1
     9    15    17   ar
    10     2     3   am
    11     3     4    1
    12     4     5    1
    13     5     6    1
    14     6    18    1
    15    18    19   ar
    16    19    20   ar
    17    20    21   ar
    18    21    24    1
    19    24    25    1
    20    25    26    1
    21    26    27    1
    22    27    28    1
    23    28    31    1
    24    31    32    1
    25    32    33    1
    26    33    34    1
    27    28    29    1
    28    29    30    1
    29    21    22   ar
    30    22    23   ar
    31     6     7   am
    32     7     8    2
    33     7     9    1
    34    17    10   ar
    35     9     3    1
    36    23    18   ar
    37    30    25    1
    38    34    31    1
@<TRIPOS>MOLECULE
*****
 34 38 0 0 0
SMALL
GASTEIGER

@<TRIPOS>ATOM
      1 O         143.2643  138.8696  167.9554 O.2     1  UNL1       -0.2699
      2 C         142.1097  139.6719  167.4326 C.2     1  UNL1        0.2496
      3 N         141.7650  139.6273  165.9735 N.am    1  UNL1       -0.2660
      4 C         140.6104  140.4296  165.4507 C.3     1  UNL1        0.1160
      5 C         140.2657  140.3850  163.9915 C.3     1  UNL1        0.1197
      6 N         141.0756  139.5381  163.0551 N.am    1  UNL1       -0.2555
      7 C         142.2302  138.7358  163.5779 C.2     1  UNL1        0.2497
      8 O         143.0400  137.8889  162.6415 O.2     1  UNL1       -0.2727
      9 C         142.5749  138.7804  165.0370 C.3     1  UNL1        0.1799
     10 C         141.2999  140.5188  168.3691 C.ar    1  UNL1        0.0581
     11 C         139.9998  140.0038  168.9119 C.ar    1  UNL1        0.0343
     12 C         139.1900  140.8508  169.8483 C.ar    1  UNL1        0.1425
     13 F         137.8899  140.3358  170.3912 F       1  UNL1       -0.2041
     14 C         139.6803  142.2126  170.2419 C.ar    1  UNL1        0.0592
     15 C         140.9803  142.7276  169.6991 C.ar    1  UNL1        0.1425
     16 F         141.4706  144.0895  170.0928 F       1  UNL1       -0.2041
     17 C         141.7901  141.8807  168.7627 C.ar    1  UNL1        0.0343
     18 C         140.7309  139.4935  161.5960 C.ar    1  UNL1        0.0541
     19 C         139.6863  138.5375  161.1010 C.ar    1  UNL1        0.0180
     20 C         139.3416  138.4930  159.6417 C.ar    1  UNL1        0.0382
     21 C         140.0414  139.4043  158.6776 C.ar    1  UNL1        0.1385
     22 C         141.0860  140.3603  159.1726 C.ar    1  UNL1        0.0382
     23 C         141.4307  140.4049  160.6318 C.ar    1  UNL1        0.0180
     24 O         139.6967  139.3598  157.2185 O.3     1  UNL1       -0.4791
     25 C         140.1124  138.1838  156.3852 C.3     1  UNL1        0.1687
     26 C         141.3400  137.4028  156.7498 C.3     1  UNL1        0.0609
     27 C         141.7557  136.2268  155.9165 C.3     1  UNL1        0.0758
     28 N         140.9438  135.8319  154.7186 N.3     1  UNL1       -0.2737
     29 C         139.7162  136.6130  154.3540 C.3     1  UNL1        0.0758
     30 C         139.3005  137.7890  155.1873 C.3     1  UNL1        0.0609
     31 C         141.3596  134.6560  153.8854 C.3     1  UNL1        0.0575
     32 C         141.0229  134.1577  152.5112 C.3     1  UNL1        0.0160
     33 C         141.9475  132.9930  152.7069 C.3     1  UNL1        0.0028
     34 C         142.2842  133.4912  154.0811 C.3     1  UNL1        0.0160
@<TRIPOS>BOND
     1     1     2    2
     2     2    10    1
     3    10    11   ar
     4    11    12   ar
     5    12    13    1
     6    12    14   ar
     7    14    15   ar
     8    15    16    1
     9    15    17   ar
    10     2     3   am
    11     3     4    1
    12     4     5    1
    13     5     6    1
    14     6    18    1
    15    18    19   ar
    16    19    20   ar
    17    20    21   ar
    18    21    24    1
    19    24    25    1
    20    25    26    1
    21    26    27    1
    22    27    28    1
    23    28    31    1
    24    31    32    1
    25    32    33    1
    26    33    34    1
    27    28    29    1
    28    29    30    1
    29    21    22   ar
    30    22    23   ar
    31     6     7   am
    32     7     8    2
    33     7     9    1
    34    17    10   ar
    35     9     3    1
    36    23    18   ar
    37    30    25    1
    38    34    31    1
@<TRIPOS>MOLECULE
*****
 34 38 0 0 0
SMALL
GASTEIGER

@<TRIPOS>ATOM
      1 O         143.3412  138.9554  168.0941 O.2     1  UNL1       -0.2699
      2 C         142.1851  139.7364  167.5430 C.2     1  UNL1        0.2496
      3 N         141.8731  139.6806  166.0769 N.am    1  UNL1       -0.2660
      4 C         140.7171  140.4616  165.5258 C.3     1  UNL1        0.1160
      5 C         140.4052  140.4057  164.0596 C.3     1  UNL1        0.1197
      6 N         141.2492  139.5690  163.1446 N.am    1  UNL1       -0.2555
      7 C         142.4053  138.7880  163.6957 C.2     1  UNL1        0.2497
      8 O         143.2493  137.9513  162.7806 O.2     1  UNL1       -0.2727
      9 C         142.7172  138.8438  165.1618 C.3     1  UNL1        0.1799
     10 C         141.3410  140.5732  168.4581 C.ar    1  UNL1        0.0581
     11 C         141.7967  141.9470  168.8516 C.ar    1  UNL1        0.0343
     12 C         140.9527  142.7837  169.7667 C.ar    1  UNL1        0.1425
     13 F         141.4083  144.1576  170.1602 F       1  UNL1       -0.2041
     14 C         139.6529  142.2466  170.2883 C.ar    1  UNL1        0.0592
     15 C         139.1972  140.8727  169.8948 C.ar    1  UNL1        0.1425
     16 F         137.8974  140.3356  170.4165 F       1  UNL1       -0.2041
     17 C         140.0413  140.0360  168.9798 C.ar    1  UNL1        0.0343
     18 C         140.9373  139.5132  161.6785 C.ar    1  UNL1        0.0541
     19 C         141.6346  140.4402  160.7275 C.ar    1  UNL1        0.0180
     20 C         141.3226  140.3844  159.2613 C.ar    1  UNL1        0.0382
     21 C         140.3133  139.4016  158.7462 C.ar    1  UNL1        0.1385
     22 C         139.6160  138.4746  159.6972 C.ar    1  UNL1        0.0382
     23 C         139.9279  138.5304  161.1633 C.ar    1  UNL1        0.0180
     24 O         140.0013  139.3458  157.2801 O.3     1  UNL1       -0.4791
     25 C         140.3800  138.1361  156.4782 C.3     1  UNL1        0.1687
     26 C         139.5175  137.6952  155.3330 C.3     1  UNL1        0.0609
     27 C         139.8962  136.4855  154.5311 C.3     1  UNL1        0.0758
     28 N         141.1374  135.7165  154.8744 N.3     1  UNL1       -0.2737
     29 C         142.0001  136.1573  156.0197 C.3     1  UNL1        0.0758
     30 C         141.6214  137.3671  156.8216 C.3     1  UNL1        0.0609
     31 C         141.5162  134.5068  154.0725 C.3     1  UNL1        0.0575
     32 C         141.8577  133.0829  154.3978 C.3     1  UNL1        0.0160
     33 C         142.0517  132.7959  152.9385 C.3     1  UNL1        0.0028
     34 C         141.7102  134.2198  152.6130 C.3     1  UNL1        0.0160
@<TRIPOS>BOND
     1     1     2    2
     2     2    10    1
     3    10    11   ar
     4    11    12   ar
     5    12    13    1
     6    12    14   ar
     7    14    15   ar
     8    15    16    1
     9    15    17   ar
    10     2     3   am
    11     3     4    1
    12     4     5    1
    13     5     6    1
    14     6    18    1
    15    18    19   ar
    16    19    20   ar
    17    20    21   ar
    18    21    24    1
    19    24    25    1
    20    25    26    1
    21    26    27    1
    22    27    28    1
    23    28    31    1
    24    31    32    1
    25    32    33    1
    26    33    34    1
    27    28    29    1
    28    29    30    1
    29    21    22   ar
    30    22    23   ar
    31     6     7   am
    32     7     8    2
    33     7     9    1
    34    17    10   ar
    35     9     3    1
    36    23    18   ar
    37    30    25    1
    38    34    31    1
@<TRIPOS>MOLECULE
*****
 34 38 0 0 0
SMALL
GASTEIGER

@<TRIPOS>ATOM
      1 O         137.8740  145.2590  154.9569 O.2     1  UNL1       -0.2699
      2 C         139.0290  146.0469  155.5002 C.2     1  UNL1        0.2496
      3 N         139.8445  145.4981  156.6332 N.am    1  UNL1       -0.2660
      4 C         140.9995  146.2860  157.1764 C.3     1  UNL1        0.1160
      5 C         141.8150  145.7372  158.3095 C.3     1  UNL1        0.1197
      6 N         141.4755  144.4004  158.8992 N.am    1  UNL1       -0.2555
      7 C         140.3205  143.6125  158.3560 C.2     1  UNL1        0.2497
      8 O         139.9809  142.2758  158.9457 O.2     1  UNL1       -0.2727
      9 C         139.5050  144.1613  157.2230 C.3     1  UNL1        0.1799
     10 C         139.3685  147.3837  154.9103 C.ar    1  UNL1        0.0581
     11 C         138.7588  148.6309  155.4785 C.ar    1  UNL1        0.0343
     12 C         139.0983  149.9676  154.8887 C.ar    1  UNL1        0.1425
     13 F         138.4886  151.2148  155.4569 F       1  UNL1       -0.2041
     14 C         140.0475  150.0571  153.7307 C.ar    1  UNL1        0.0592
     15 C         140.6572  148.8100  153.1625 C.ar    1  UNL1        0.1425
     16 F         141.6064  148.8996  152.0045 F       1  UNL1       -0.2041
     17 C         140.3177  147.4733  153.7523 C.ar    1  UNL1        0.0343
     18 C         142.2910  143.8516  160.0322 C.ar    1  UNL1        0.0541
     19 C         141.9548  144.2218  161.4464 C.ar    1  UNL1        0.0180
     20 C         142.7704  143.6729  162.5795 C.ar    1  UNL1        0.0382
     21 C         143.9220  142.7539  162.2983 C.ar    1  UNL1        0.1385
     22 C         144.2582  142.3838  160.8841 C.ar    1  UNL1        0.0382
     23 C         143.4427  142.9326  159.7511 C.ar    1  UNL1        0.0180
     24 O         144.7375  142.2051  163.4313 O.3     1  UNL1       -0.4791
     25 C         144.0584  141.7161  164.6761 C.3     1  UNL1        0.1687
     26 C         143.7740  142.6689  165.7990 C.3     1  UNL1        0.0609
     27 C         143.0949  142.1798  167.0439 C.3     1  UNL1        0.0758
     28 N         142.7002  140.7379  167.1657 N.3     1  UNL1       -0.2737
     29 C         142.9846  139.7849  166.0427 C.3     1  UNL1        0.0758
     30 C         143.6637  140.2740  164.7979 C.3     1  UNL1        0.0609
     31 C         142.0210  140.2488  168.4106 C.3     1  UNL1        0.0575
     32 C         142.4654  139.5242  169.6464 C.3     1  UNL1        0.0160
     33 C         141.0606  139.5571  170.1710 C.3     1  UNL1        0.0028
     34 C         140.6161  140.2818  168.9352 C.3     1  UNL1        0.0160
@<TRIPOS>BOND
     1     1     2    2
     2     2    10    1
     3    10    11   ar
     4    11    12   ar
     5    12    13    1
     6    12    14   ar
     7    14    15   ar
     8    15    16    1
     9    15    17   ar
    10     2     3   am
    11     3     4    1
    12     4     5    1
    13     5     6    1
    14     6    18    1
    15    18    19   ar
    16    19    20   ar
    17    20    21   ar
    18    21    24    1
    19    24    25    1
    20    25    26    1
    21    26    27    1
    22    27    28    1
    23    28    31    1
    24    31    32    1
    25    32    33    1
    26    33    34    1
    27    28    29    1
    28    29    30    1
    29    21    22   ar
    30    22    23   ar
    31     6     7   am
    32     7     8    2
    33     7     9    1
    34    17    10   ar
    35     9     3    1
    36    23    18   ar
    37    30    25    1
    38    34    31    1
@<TRIPOS>MOLECULE
*****
 34 38 0 0 0
SMALL
GASTEIGER

@<TRIPOS>ATOM
      1 O         137.7746  145.1632  154.9739 O.2     1  UNL1       -0.2699
      2 C         138.8782  145.9430  155.6249 C.2     1  UNL1        0.2496
      3 N         139.6551  145.3405  156.7578 N.am    1  UNL1       -0.2660
      4 C         140.7587  146.1203  157.4088 C.3     1  UNL1        0.1160
      5 C         141.5355  145.5177  158.5417 C.3     1  UNL1        0.1197
      6 N         141.2088  144.1353  159.0235 N.am    1  UNL1       -0.2555
      7 C         140.1052  143.3555  158.3725 C.2     1  UNL1        0.2497
      8 O         139.7784  141.9731  158.8543 O.2     1  UNL1       -0.2727
      9 C         139.3283  143.9580  157.2396 C.3     1  UNL1        0.1799
     10 C         139.2050  147.3255  155.1431 C.ar    1  UNL1        0.0581
     11 C         140.1677  147.5164  154.0088 C.ar    1  UNL1        0.0343
     12 C         140.4944  148.8988  153.5270 C.ar    1  UNL1        0.1425
     13 F         141.4572  149.0897  152.3927 F       1  UNL1       -0.2041
     14 C         139.8584  150.0903  154.1795 C.ar    1  UNL1        0.0592
     15 C         138.8956  149.8994  155.3137 C.ar    1  UNL1        0.1425
     16 F         138.2595  151.0909  155.9662 F       1  UNL1       -0.2041
     17 C         138.5689  148.5170  155.7955 C.ar    1  UNL1        0.0343
     18 C         141.9856  143.5328  160.1564 C.ar    1  UNL1        0.0541
     19 C         143.3783  143.0261  159.9249 C.ar    1  UNL1        0.0180
     20 C         144.1552  142.4235  161.0578 C.ar    1  UNL1        0.0382
     21 C         143.5393  142.3276  162.4222 C.ar    1  UNL1        0.1385
     22 C         142.1466  142.8344  162.6537 C.ar    1  UNL1        0.0382
     23 C         141.3698  143.4369  161.5208 C.ar    1  UNL1        0.0180
     24 O         144.3162  141.7251  163.5550 O.3     1  UNL1       -0.4791
     25 C         143.6224  141.3764  164.8384 C.3     1  UNL1        0.1687
     26 C         142.9885  140.0272  165.0057 C.3     1  UNL1        0.0609
     27 C         142.2947  139.6785  166.2891 C.3     1  UNL1        0.0758
     28 N         142.2348  140.6789  167.4051 N.3     1  UNL1       -0.2737
     29 C         142.8686  142.0281  167.2378 C.3     1  UNL1        0.0758
     30 C         143.5624  142.3769  165.9544 C.3     1  UNL1        0.0609
     31 C         141.5410  140.3302  168.6885 C.3     1  UNL1        0.0575
     32 C         140.2594  140.7454  169.3482 C.3     1  UNL1        0.0160
     33 C         140.5598  139.8370  170.5034 C.3     1  UNL1        0.0028
     34 C         141.8413  139.4217  169.8437 C.3     1  UNL1        0.0160
@<TRIPOS>BOND
     1     1     2    2
     2     2    10    1
     3    10    11   ar
     4    11    12   ar
     5    12    13    1
     6    12    14   ar
     7    14    15   ar
     8    15    16    1
     9    15    17   ar
    10     2     3   am
    11     3     4    1
    12     4     5    1
    13     5     6    1
    14     6    18    1
    15    18    19   ar
    16    19    20   ar
    17    20    21   ar
    18    21    24    1
    19    24    25    1
    20    25    26    1
    21    26    27    1
    22    27    28    1
    23    28    31    1
    24    31    32    1
    25    32    33    1
    26    33    34    1
    27    28    29    1
    28    29    30    1
    29    21    22   ar
    30    22    23   ar
    31     6     7   am
    32     7     8    2
    33     7     9    1
    34    17    10   ar
    35     9     3    1
    36    23    18   ar
    37    30    25    1
    38    34    31    1
