@<TRIPOS>MOLECULE
*****
 44 47 0 0 0
SMALL
GASTEIGER

@<TRIPOS>ATOM
      1 C         141.2058  140.9902  162.4894 C.3     1  UNL1        0.0808
      2 C         140.8618  140.7487  163.9293 C.ar    1  UNL1        0.0375
      3 C         140.9692  141.8666  164.9237 C.ar    1  UNL1        0.0023
      4 C         140.6253  141.6251  166.3636 C.ar    1  UNL1        0.0181
      5 C         140.7327  142.7430  167.3580 C.ar    1  UNL1        0.0082
      6 C         140.3887  142.5015  168.7980 C.ar    1  UNL1        0.0347
      7 BR        140.4962  143.6194  169.7924 Br      1  UNL1       -0.0490
      8 C         139.9374  141.1422  169.2435 C.ar    1  UNL1        0.0082
      9 C         139.8299  140.0243  168.2491 C.ar    1  UNL1        0.0197
     10 C         140.1739  140.2658  166.8092 C.ar    1  UNL1        0.0844
     11 N         140.0664  139.1479  165.8148 N.ar    1  UNL1       -0.2119
     12 C         140.4104  139.3894  164.3748 C.ar    1  UNL1        0.2211
     13 O         140.3030  138.2715  163.3804 O.3     1  UNL1       -0.4563
     14 C         138.9880  137.5827  163.1655 C.3     1  UNL1        0.2542
     15 C         140.3169  140.4553  161.4060 C.ar    1  UNL1        0.0245
     16 C         138.8616  140.8180  161.3826 C.ar    1  UNL1        0.0200
     17 C         137.9727  140.2830  160.2992 C.ar    1  UNL1        0.1019
     18 N         138.5391  139.3854  159.2393 N.ar    1  UNL1       -0.2076
     19 C         139.9944  139.0227  159.2627 C.ar    1  UNL1        0.2598
     20 C         140.8833  139.5577  160.3461 C.ar    1  UNL1        0.1879
     21 O         140.5608  138.1251  158.2028 O.3     1  UNL1       -0.4541
     22 C         139.8277  137.9387  156.9075 C.3     1  UNL1        0.2543
     23 O         142.3386  139.1950  160.3696 O.3     1  UNL1       -0.4670
     24 C         142.7683  137.8499  160.8759 C.3     1  UNL1        0.2527
     25 C         142.4387  141.7666  162.1328 C.3     1  UNL1        0.1162
     26 O         143.2885  140.7169  162.7855 O.3     1  UNL1       -0.3820
     27 H         144.2233  140.9640  162.7088 H       1  UNL1        0.2107
     28 C         139.6565  144.5480  161.6103 C.ar    1  UNL1        0.2271
     29 C         140.5063  143.4983  162.2630 C.ar    1  UNL1        0.0559
     30 C         141.5889  142.8163  161.4802 C.ar    1  UNL1        0.0117
     31 C         141.8217  143.1840  160.0447 C.ar    1  UNL1        0.0559
     32 C         140.9719  144.2337  159.3921 C.ar    1  UNL1        0.2272
     33 N         139.8893  144.9157  160.1749 N.ar    1  UNL1       -0.1767
     34 O         141.2047  144.6014  157.9565 O.3     1  UNL1       -0.4561
     35 C         140.8052  145.9576  157.4554 C.3     1  UNL1        0.2542
     36 O         138.5739  145.2301  162.3932 O.3     1  UNL1       -0.4602
     37 C         137.5688  144.4143  163.1510 C.3     1  UNL1        0.2071
     38 C         138.7386  144.9480  165.4086 C.3     1  UNL1        0.0040
     39 C         137.7918  144.1090  164.6026 C.3     1  UNL1        0.0474
     40 C         143.6716  142.5431  161.7763 C.3     1  UNL1        0.0491
     41 C         144.6410  142.9448  162.8482 C.3     1  UNL1        0.0750
     42 N         144.1737  143.7678  164.0119 N.3     1  UNL1       -0.2702
     43 C         144.3583  143.2606  165.4114 C.3     1  UNL1        0.0897
     44 C         143.5217  145.0980  163.7761 C.3     1  UNL1        0.0897
@<TRIPOS>BOND
     1    38    39    1
     2    39    37    1
     3    37    36    1
     4    36    28    1
     5    28    29   ar
     6    29    30   ar
     7    30    25    1
     8    25    26    1
     9    25    40    1
    10    40    41    1
    11    41    42    1
    12    42    43    1
    13    42    44    1
    14    25     1    1
    15     1     2    1
    16     2     3   ar
    17     3     4   ar
    18     4     5   ar
    19     5     6   ar
    20     6     7    1
    21     6     8   ar
    22     8     9   ar
    23     9    10   ar
    24    10    11   ar
    25    11    12   ar
    26    12    13    1
    27    13    14    1
    28     1    15    1
    29    15    16   ar
    30    16    17   ar
    31    17    18   ar
    32    18    19   ar
    33    19    21    1
    34    21    22    1
    35    19    20   ar
    36    20    23    1
    37    23    24    1
    38    30    31   ar
    39    31    32   ar
    40    32    34    1
    41    34    35    1
    42    32    33   ar
    43    33    28   ar
    44    12     2   ar
    45    20    15   ar
    46    10     4   ar
    47    26    27    1
@<TRIPOS>MOLECULE
*****
 44 47 0 0 0
SMALL
GASTEIGER

@<TRIPOS>ATOM
      1 C         141.6932  141.9104  162.6170 C.3     1  UNL1        0.0808
      2 C         142.0662  142.0000  164.0672 C.ar    1  UNL1        0.0375
      3 C         141.0448  141.7007  165.1241 C.ar    1  UNL1        0.0023
      4 C         141.4177  141.7902  166.5742 C.ar    1  UNL1        0.0181
      5 C         140.3963  141.4909  167.6312 C.ar    1  UNL1        0.0082
      6 C         140.7693  141.5805  169.0814 C.ar    1  UNL1        0.0347
      7 BR        139.7479  141.2811  170.1383 Br      1  UNL1       -0.0490
      8 C         142.1636  141.9694  169.4745 C.ar    1  UNL1        0.0082
      9 C         143.1850  142.2688  168.4175 C.ar    1  UNL1        0.0197
     10 C         142.8121  142.1792  166.9674 C.ar    1  UNL1        0.0844
     11 N         143.8335  142.4785  165.9105 N.ar    1  UNL1       -0.2119
     12 C         143.4605  142.3889  164.4603 C.ar    1  UNL1        0.2211
     13 O         144.4819  142.6883  163.4033 O.3     1  UNL1       -0.4563
     14 C         145.6891  141.8102  163.2568 C.3     1  UNL1        0.2542
     15 C         142.5145  141.0735  161.6817 C.ar    1  UNL1        0.0245
     16 C         142.7146  139.6134  161.9611 C.ar    1  UNL1        0.0200
     17 C         143.5360  138.7764  161.0258 C.ar    1  UNL1        0.1019
     18 N         144.1572  139.3996  159.8109 N.ar    1  UNL1       -0.2076
     19 C         143.9571  140.8597  159.5315 C.ar    1  UNL1        0.2598
     20 C         143.1357  141.6966  160.4669 C.ar    1  UNL1        0.1879
     21 O         144.5783  141.4828  158.3167 O.3     1  UNL1       -0.4541
     22 C         144.6383  140.7168  157.0284 C.3     1  UNL1        0.2543
     23 O         142.9356  143.1567  160.1874 O.3     1  UNL1       -0.4670
     24 C         142.1094  143.5891  159.0125 C.3     1  UNL1        0.2527
     25 C         140.4989  142.6578  162.1022 C.3     1  UNL1        0.1162
     26 O         141.1476  143.9559  162.4818 O.3     1  UNL1       -0.3820
     27 H         140.5593  144.6914  162.2498 H       1  UNL1        0.2107
     28 C         138.8512  139.0600  162.4032 C.ar    1  UNL1        0.2271
     29 C         139.4999  140.3581  162.7828 C.ar    1  UNL1        0.0559
     30 C         139.8501  141.3597  161.7226 C.ar    1  UNL1        0.0117
     31 C         139.5516  141.0633  160.2829 C.ar    1  UNL1        0.0559
     32 C         138.9029  139.7652  159.9033 C.ar    1  UNL1        0.2272
     33 N         138.5527  138.7635  160.9634 N.ar    1  UNL1       -0.1767
     34 O         138.6044  139.4687  158.4634 O.3     1  UNL1       -0.4561
     35 C         138.2519  140.5849  157.5254 C.3     1  UNL1        0.2542
     36 O         138.5010  138.0583  163.4635 O.3     1  UNL1       -0.4602
     37 C         138.9780  138.2587  164.8714 C.3     1  UNL1        0.2071
     38 C         137.6747  138.5589  167.0988 C.3     1  UNL1        0.0040
     39 C         138.1957  139.1267  165.8119 C.3     1  UNL1        0.0474
     40 C         139.3045  143.4052  161.5875 C.3     1  UNL1        0.0491
     41 C         138.5566  144.3386  162.4927 C.3     1  UNL1        0.0750
     42 N         138.3682  143.9899  163.9394 N.3     1  UNL1       -0.2702
     43 C         138.9924  144.8427  165.0038 C.3     1  UNL1        0.0897
     44 C         137.5555  142.7884  164.3216 C.3     1  UNL1        0.0897
@<TRIPOS>BOND
     1    38    39    1
     2    39    37    1
     3    37    36    1
     4    36    28    1
     5    28    29   ar
     6    29    30   ar
     7    30    25    1
     8    25    26    1
     9    25    40    1
    10    40    41    1
    11    41    42    1
    12    42    43    1
    13    42    44    1
    14    25     1    1
    15     1     2    1
    16     2     3   ar
    17     3     4   ar
    18     4     5   ar
    19     5     6   ar
    20     6     7    1
    21     6     8   ar
    22     8     9   ar
    23     9    10   ar
    24    10    11   ar
    25    11    12   ar
    26    12    13    1
    27    13    14    1
    28     1    15    1
    29    15    16   ar
    30    16    17   ar
    31    17    18   ar
    32    18    19   ar
    33    19    21    1
    34    21    22    1
    35    19    20   ar
    36    20    23    1
    37    23    24    1
    38    30    31   ar
    39    31    32   ar
    40    32    34    1
    41    34    35    1
    42    32    33   ar
    43    33    28   ar
    44    12     2   ar
    45    20    15   ar
    46    10     4   ar
    47    26    27    1
@<TRIPOS>MOLECULE
*****
 44 47 0 0 0
SMALL
GASTEIGER

@<TRIPOS>ATOM
      1 C         140.5030  141.3807  162.5210 C.3     1  UNL1        0.0808
      2 C         140.4391  141.8578  163.9417 C.ar    1  UNL1        0.0375
      3 C         141.4180  141.3377  164.9523 C.ar    1  UNL1        0.0023
      4 C         141.3541  141.8148  166.3729 C.ar    1  UNL1        0.0181
      5 C         142.3330  141.2947  167.3835 C.ar    1  UNL1        0.0082
      6 C         142.2691  141.7718  168.8042 C.ar    1  UNL1        0.0347
      7 BR        143.2480  141.2517  169.8148 Br      1  UNL1       -0.0490
      8 C         141.2263  142.7689  169.2143 C.ar    1  UNL1        0.0082
      9 C         140.2473  143.2890  168.2037 C.ar    1  UNL1        0.0197
     10 C         140.3112  142.8119  166.7831 C.ar    1  UNL1        0.0844
     11 N         139.3323  143.3320  165.7725 N.ar    1  UNL1       -0.2119
     12 C         139.3963  142.8549  164.3518 C.ar    1  UNL1        0.2211
     13 O         138.4173  143.3750  163.3412 O.3     1  UNL1       -0.4563
     14 C         138.5281  144.7870  162.8474 C.3     1  UNL1        0.2542
     15 C         141.0649  142.2734  161.4546 C.ar    1  UNL1        0.0245
     16 C         142.4898  142.7349  161.5367 C.ar    1  UNL1        0.0200
     17 C         143.0517  143.6276  160.4704 C.ar    1  UNL1        0.1019
     18 N         142.1887  144.0590  159.3218 N.ar    1  UNL1       -0.2076
     19 C         140.7638  143.5976  159.2396 C.ar    1  UNL1        0.2598
     20 C         140.2019  142.7048  160.3061 C.ar    1  UNL1        0.1879
     21 O         139.9008  144.0289  158.0911 O.3     1  UNL1       -0.4541
     22 C         140.2838  145.2269  157.2738 C.3     1  UNL1        0.2543
     23 O         138.7771  142.2433  160.2239 O.3     1  UNL1       -0.4670
     24 C         138.3732  141.2370  159.1874 C.3     1  UNL1        0.2527
     25 C         140.0051  140.0108  162.1667 C.3     1  UNL1        0.1162
     26 O         138.6164  140.4120  162.5676 O.3     1  UNL1       -0.3820
     27 H         138.0135  139.6633  162.4381 H       1  UNL1        0.2107
     28 C         143.8654  139.1197  162.3990 C.ar    1  UNL1        0.2271
     29 C         142.4767  139.5209  162.7999 C.ar    1  UNL1        0.0559
     30 C         141.3937  139.6097  161.7659 C.ar    1  UNL1        0.0117
     31 C         141.6994  139.2974  160.3310 C.ar    1  UNL1        0.0559
     32 C         143.0881  138.8962  159.9301 C.ar    1  UNL1        0.2272
     33 N         144.1710  138.8074  160.9641 N.ar    1  UNL1       -0.1767
     34 O         143.3937  138.5839  158.4951 O.3     1  UNL1       -0.4561
     35 C         142.4448  137.7448  157.6916 C.3     1  UNL1        0.2542
     36 O         144.9484  139.0309  163.4331 O.3     1  UNL1       -0.4602
     37 C         145.2083  140.1906  164.3484 C.3     1  UNL1        0.2071
     38 C         144.8122  142.7557  164.4619 C.3     1  UNL1        0.0040
     39 C         145.4145  141.5632  163.7799 C.3     1  UNL1        0.0474
     40 C         139.5071  138.6410  161.8125 C.3     1  UNL1        0.0491
     41 C         138.8895  137.7714  162.8673 C.3     1  UNL1        0.0750
     42 N         139.4222  137.8000  164.2693 N.3     1  UNL1       -0.2702
     43 C         138.6464  138.4889  165.3525 C.3     1  UNL1        0.0897
     44 C         140.7308  137.1396  164.5879 C.3     1  UNL1        0.0897
@<TRIPOS>BOND
     1    38    39    1
     2    39    37    1
     3    37    36    1
     4    36    28    1
     5    28    29   ar
     6    29    30   ar
     7    30    25    1
     8    25    26    1
     9    25    40    1
    10    40    41    1
    11    41    42    1
    12    42    43    1
    13    42    44    1
    14    25     1    1
    15     1     2    1
    16     2     3   ar
    17     3     4   ar
    18     4     5   ar
    19     5     6   ar
    20     6     7    1
    21     6     8   ar
    22     8     9   ar
    23     9    10   ar
    24    10    11   ar
    25    11    12   ar
    26    12    13    1
    27    13    14    1
    28     1    15    1
    29    15    16   ar
    30    16    17   ar
    31    17    18   ar
    32    18    19   ar
    33    19    21    1
    34    21    22    1
    35    19    20   ar
    36    20    23    1
    37    23    24    1
    38    30    31   ar
    39    31    32   ar
    40    32    34    1
    41    34    35    1
    42    32    33   ar
    43    33    28   ar
    44    12     2   ar
    45    20    15   ar
    46    10     4   ar
    47    26    27    1
@<TRIPOS>MOLECULE
*****
 44 47 0 0 0
SMALL
GASTEIGER

@<TRIPOS>ATOM
      1 C         141.7439  141.8267  162.3550 C.3     1  UNL1        0.0808
      2 C         142.0073  141.9480  163.8267 C.ar    1  UNL1        0.0375
      3 C         140.9884  141.4602  164.8136 C.ar    1  UNL1        0.0023
      4 C         141.2517  141.5814  166.2853 C.ar    1  UNL1        0.0181
      5 C         140.2328  141.0937  167.2722 C.ar    1  UNL1        0.0082
      6 C         140.4961  141.2149  168.7440 C.ar    1  UNL1        0.0347
      7 BR        139.4772  140.7272  169.7308 Br      1  UNL1       -0.0490
      8 C         141.7783  141.8240  169.2288 C.ar    1  UNL1        0.0082
      9 C         142.7972  142.3117  168.2419 C.ar    1  UNL1        0.0197
     10 C         142.5339  142.1905  166.7702 C.ar    1  UNL1        0.0844
     11 N         143.5528  142.6783  165.7833 N.ar    1  UNL1       -0.2119
     12 C         143.2894  142.5570  164.3115 C.ar    1  UNL1        0.2211
     13 O         144.3083  143.0448  163.3246 O.3     1  UNL1       -0.4563
     14 C         144.3222  144.4867  162.9117 C.3     1  UNL1        0.2542
     15 C         141.4668  143.0544  161.5390 C.ar    1  UNL1        0.0245
     16 C         140.5019  144.0870  162.0417 C.ar    1  UNL1        0.0200
     17 C         140.2247  145.3147  161.2257 C.ar    1  UNL1        0.1019
     18 N         140.9125  145.5099  159.9069 N.ar    1  UNL1       -0.2076
     19 C         141.8774  144.4773  159.4043 C.ar    1  UNL1        0.2598
     20 C         142.1545  143.2495  160.2203 C.ar    1  UNL1        0.1879
     21 O         142.5651  144.6724  158.0856 O.3     1  UNL1       -0.4541
     22 C         142.1687  145.8119  157.1944 C.3     1  UNL1        0.2543
     23 O         143.1194  142.2169  159.7176 O.3     1  UNL1       -0.4670
     24 C         144.5944  142.4870  159.7560 C.3     1  UNL1        0.2527
     25 C         141.7578  140.4777  161.6992 C.3     1  UNL1        0.1162
     26 O         143.2153  140.3349  162.0238 O.3     1  UNL1       -0.3820
     27 H         143.5379  139.4816  161.6940 H       1  UNL1        0.2107
     28 C         137.8824  141.2315  162.1029 C.ar    1  UNL1        0.2271
     29 C         139.3399  141.0887  162.4274 C.ar    1  UNL1        0.0559
     30 C         140.3003  140.6205  161.3747 C.ar    1  UNL1        0.0117
     31 C         139.8032  140.2950  159.9974 C.ar    1  UNL1        0.0559
     32 C         138.3457  140.4378  159.6729 C.ar    1  UNL1        0.2272
     33 N         137.3853  140.9060  160.7256 N.ar    1  UNL1       -0.1767
     34 O         137.8486  140.1122  158.2955 O.3     1  UNL1       -0.4561
     35 C         137.4620  141.2168  157.3572 C.3     1  UNL1        0.2542
     36 O         136.9220  141.6998  163.1557 O.3     1  UNL1       -0.4602
     37 C         137.4316  142.4201  164.3688 C.3     1  UNL1        0.2071
     38 C         138.7164  144.4981  165.2525 C.3     1  UNL1        0.0040
     39 C         137.7334  143.8877  164.2980 C.3     1  UNL1        0.0474
     40 C         141.7716  139.1287  161.0435 C.3     1  UNL1        0.0491
     41 C         141.9642  137.8936  161.8728 C.3     1  UNL1        0.0750
     42 N         141.3591  137.8082  163.2427 N.3     1  UNL1       -0.2702
     43 C         142.2193  138.0021  164.4561 C.3     1  UNL1        0.0897
     44 C         139.8936  137.5288  163.3991 C.3     1  UNL1        0.0897
@<TRIPOS>BOND
     1    38    39    1
     2    39    37    1
     3    37    36    1
     4    36    28    1
     5    28    29   ar
     6    29    30   ar
     7    30    25    1
     8    25    26    1
     9    25    40    1
    10    40    41    1
    11    41    42    1
    12    42    43    1
    13    42    44    1
    14    25     1    1
    15     1     2    1
    16     2     3   ar
    17     3     4   ar
    18     4     5   ar
    19     5     6   ar
    20     6     7    1
    21     6     8   ar
    22     8     9   ar
    23     9    10   ar
    24    10    11   ar
    25    11    12   ar
    26    12    13    1
    27    13    14    1
    28     1    15    1
    29    15    16   ar
    30    16    17   ar
    31    17    18   ar
    32    18    19   ar
    33    19    21    1
    34    21    22    1
    35    19    20   ar
    36    20    23    1
    37    23    24    1
    38    30    31   ar
    39    31    32   ar
    40    32    34    1
    41    34    35    1
    42    32    33   ar
    43    33    28   ar
    44    12     2   ar
    45    20    15   ar
    46    10     4   ar
    47    26    27    1
@<TRIPOS>MOLECULE
*****
 44 47 0 0 0
SMALL
GASTEIGER

@<TRIPOS>ATOM
      1 C         140.4555  141.4579  161.6113 C.3     1  UNL1        0.0808
      2 C         140.2017  141.0478  163.0317 C.ar    1  UNL1        0.0375
      3 C         141.2311  141.3235  164.0873 C.ar    1  UNL1        0.0023
      4 C         140.9773  140.9135  165.5077 C.ar    1  UNL1        0.0181
      5 C         142.0068  141.1892  166.5632 C.ar    1  UNL1        0.0082
      6 C         141.7529  140.7791  167.9837 C.ar    1  UNL1        0.0347
      7 BR        142.7824  141.0548  169.0392 Br      1  UNL1       -0.0490
      8 C         140.4697  140.0935  168.3484 C.ar    1  UNL1        0.0082
      9 C         139.4402  139.8178  167.2929 C.ar    1  UNL1        0.0197
     10 C         139.6940  140.2278  165.8725 C.ar    1  UNL1        0.0844
     11 N         138.6646  139.9521  164.8169 N.ar    1  UNL1       -0.2119
     12 C         138.9184  140.3622  163.3965 C.ar    1  UNL1        0.2211
     13 O         137.8890  140.0865  162.3409 O.3     1  UNL1       -0.4563
     14 C         137.6865  138.6880  161.8378 C.3     1  UNL1        0.2542
     15 C         140.6169  140.4137  160.5467 C.ar    1  UNL1        0.0245
     16 C         141.7374  139.4203  160.6342 C.ar    1  UNL1        0.0200
     17 C         141.8989  138.3761  159.5695 C.ar    1  UNL1        0.1019
     18 N         140.9397  138.3252  158.4173 N.ar    1  UNL1       -0.2076
     19 C         139.8191  139.3185  158.3298 C.ar    1  UNL1        0.2598
     20 C         139.6578  140.3628  159.3946 C.ar    1  UNL1        0.1879
     21 O         138.8600  139.2677  157.1777 O.3     1  UNL1       -0.4541
     22 C         139.2997  139.7159  155.8155 C.3     1  UNL1        0.2543
     23 O         138.5372  141.3561  159.3071 O.3     1  UNL1       -0.4670
     24 C         138.5880  142.4562  158.2886 C.3     1  UNL1        0.2527
     25 C         140.5479  142.9122  161.2556 C.3     1  UNL1        0.1162
     26 O         139.1297  143.1114  161.7017 O.3     1  UNL1       -0.3820
     27 H         138.8804  144.0410  161.5810 H       1  UNL1        0.2107
     28 C         144.4543  142.2222  161.3734 C.ar    1  UNL1        0.2271
     29 C         143.0361  142.4214  161.8195 C.ar    1  UNL1        0.0559
     30 C         141.9661  142.7129  160.8095 C.ar    1  UNL1        0.0117
     31 C         142.3143  142.8052  159.3535 C.ar    1  UNL1        0.0559
     32 C         143.7325  142.6059  158.9074 C.ar    1  UNL1        0.2272
     33 N         144.8025  142.3144  159.9173 N.ar    1  UNL1       -0.1767
     34 O         144.0807  142.6982  157.4512 O.3     1  UNL1       -0.4561
     35 C         145.4315  142.2543  156.9735 C.3     1  UNL1        0.2542
     36 O         145.5244  141.9307  162.3835 O.3     1  UNL1       -0.4602
     37 C         145.1493  141.5626  163.7884 C.3     1  UNL1        0.2071
     38 C         144.1739  139.1800  163.4394 C.3     1  UNL1        0.0040
     39 C         145.0704  140.1195  164.1900 C.3     1  UNL1        0.0474
     40 C         140.6404  144.3665  160.9000 C.3     1  UNL1        0.0491
     41 C         140.3873  145.4118  161.9456 C.3     1  UNL1        0.0750
     42 N         140.7781  145.1568  163.3711 N.3     1  UNL1       -0.2702
     43 C         139.7332  144.7816  164.3797 C.3     1  UNL1        0.0897
     44 C         142.2140  145.2770  163.7881 C.3     1  UNL1        0.0897
@<TRIPOS>BOND
     1    38    39    1
     2    39    37    1
     3    37    36    1
     4    36    28    1
     5    28    29   ar
     6    29    30   ar
     7    30    25    1
     8    25    26    1
     9    25    40    1
    10    40    41    1
    11    41    42    1
    12    42    43    1
    13    42    44    1
    14    25     1    1
    15     1     2    1
    16     2     3   ar
    17     3     4   ar
    18     4     5   ar
    19     5     6   ar
    20     6     7    1
    21     6     8   ar
    22     8     9   ar
    23     9    10   ar
    24    10    11   ar
    25    11    12   ar
    26    12    13    1
    27    13    14    1
    28     1    15    1
    29    15    16   ar
    30    16    17   ar
    31    17    18   ar
    32    18    19   ar
    33    19    21    1
    34    21    22    1
    35    19    20   ar
    36    20    23    1
    37    23    24    1
    38    30    31   ar
    39    31    32   ar
    40    32    34    1
    41    34    35    1
    42    32    33   ar
    43    33    28   ar
    44    12     2   ar
    45    20    15   ar
    46    10     4   ar
    47    26    27    1
@<TRIPOS>MOLECULE
*****
 44 47 0 0 0
SMALL
GASTEIGER

@<TRIPOS>ATOM
      1 C         140.8251  141.5417  158.9522 C.3     1  UNL1        0.0808
      2 C         141.4122  142.4067  160.0280 C.ar    1  UNL1        0.0375
      3 C         141.7026  141.8276  161.3809 C.ar    1  UNL1        0.0023
      4 C         142.2897  142.6925  162.4566 C.ar    1  UNL1        0.0181
      5 C         142.5801  142.1134  163.8095 C.ar    1  UNL1        0.0082
      6 C         143.1672  142.9784  164.8853 C.ar    1  UNL1        0.0347
      7 BR        143.4576  142.3993  166.2382 Br      1  UNL1       -0.0490
      8 C         143.4639  144.4223  164.6082 C.ar    1  UNL1        0.0082
      9 C         143.1735  145.0014  163.2553 C.ar    1  UNL1        0.0197
     10 C         142.5864  144.1365  162.1795 C.ar    1  UNL1        0.0844
     11 N         142.2960  144.7156  160.8266 N.ar    1  UNL1       -0.2119
     12 C         141.7089  143.8507  159.7509 C.ar    1  UNL1        0.2211
     13 O         141.4185  144.4298  158.3980 O.3     1  UNL1       -0.4563
     14 C         140.3987  145.5200  158.2520 C.3     1  UNL1        0.2542
     15 C         141.5910  140.3580  158.4403 C.ar    1  UNL1        0.0245
     16 C         141.1669  138.9697  158.8185 C.ar    1  UNL1        0.0200
     17 C         141.9328  137.7860  158.3065 C.ar    1  UNL1        0.1019
     18 N         143.1227  137.9904  157.4163 N.ar    1  UNL1       -0.2076
     19 C         143.5468  139.3786  157.0382 C.ar    1  UNL1        0.2598
     20 C         142.7808  140.5624  157.5502 C.ar    1  UNL1        0.1879
     21 O         144.7366  139.5831  156.1481 O.3     1  UNL1       -0.4541
     22 C         144.9217  138.7220  154.9339 C.3     1  UNL1        0.2543
     23 O         143.2049  141.9507  157.1720 O.3     1  UNL1       -0.4670
     24 C         144.4536  142.5394  157.7587 C.3     1  UNL1        0.2527
     25 C         139.4722  141.8606  158.3885 C.3     1  UNL1        0.1162
     26 O         140.0914  142.1144  157.0460 O.3     1  UNL1       -0.3820
     27 H         139.3999  142.3635  156.4130 H       1  UNL1        0.2107
     28 C         137.8786  142.5054  161.9655 C.ar    1  UNL1        0.2271
     29 C         138.4978  142.7592  160.6230 C.ar    1  UNL1        0.0559
     30 C         138.8530  141.6068  159.7309 C.ar    1  UNL1        0.0117
     31 C         138.5890  140.2006  160.1814 C.ar    1  UNL1        0.0559
     32 C         137.9698  139.9468  161.5238 C.ar    1  UNL1        0.2272
     33 N         137.6146  141.0992  162.4159 N.ar    1  UNL1       -0.1767
     34 O         137.7058  138.5405  161.9742 O.3     1  UNL1       -0.4561
     35 C         138.7548  137.7883  162.7382 C.3     1  UNL1        0.2542
     36 O         137.5234  143.6578  162.8575 O.3     1  UNL1       -0.4602
     37 C         138.4922  144.7875  163.0449 C.3     1  UNL1        0.2071
     38 C         139.3524  143.8774  165.3213 C.3     1  UNL1        0.0040
     39 C         139.5771  144.6820  164.0755 C.3     1  UNL1        0.0474
     40 C         138.1192  142.1794  157.8247 C.3     1  UNL1        0.0491
     41 C         137.6490  141.4995  156.5730 C.3     1  UNL1        0.0750
     42 N         137.4316  142.2983  155.3221 N.3     1  UNL1       -0.2702
     43 C         136.7727  143.6437  155.3964 C.3     1  UNL1        0.0897
     44 C         137.8731  141.7515  153.9969 C.3     1  UNL1        0.0897
@<TRIPOS>BOND
     1    38    39    1
     2    39    37    1
     3    37    36    1
     4    36    28    1
     5    28    29   ar
     6    29    30   ar
     7    30    25    1
     8    25    26    1
     9    25    40    1
    10    40    41    1
    11    41    42    1
    12    42    43    1
    13    42    44    1
    14    25     1    1
    15     1     2    1
    16     2     3   ar
    17     3     4   ar
    18     4     5   ar
    19     5     6   ar
    20     6     7    1
    21     6     8   ar
    22     8     9   ar
    23     9    10   ar
    24    10    11   ar
    25    11    12   ar
    26    12    13    1
    27    13    14    1
    28     1    15    1
    29    15    16   ar
    30    16    17   ar
    31    17    18   ar
    32    18    19   ar
    33    19    21    1
    34    21    22    1
    35    19    20   ar
    36    20    23    1
    37    23    24    1
    38    30    31   ar
    39    31    32   ar
    40    32    34    1
    41    34    35    1
    42    32    33   ar
    43    33    28   ar
    44    12     2   ar
    45    20    15   ar
    46    10     4   ar
    47    26    27    1
@<TRIPOS>MOLECULE
*****
 44 47 0 0 0
SMALL
GASTEIGER

@<TRIPOS>ATOM
      1 C         139.9671  141.7708  161.2196 C.3     1  UNL1        0.0808
      2 C         139.8606  141.2644  162.6276 C.ar    1  UNL1        0.0375
      3 C         140.8620  141.6962  163.6576 C.ar    1  UNL1        0.0023
      4 C         140.7556  141.1898  165.0655 C.ar    1  UNL1        0.0181
      5 C         141.7569  141.6216  166.0955 C.ar    1  UNL1        0.0082
      6 C         141.6504  141.1152  167.5035 C.ar    1  UNL1        0.0347
      7 BR        142.6518  141.5469  168.5335 Br      1  UNL1       -0.0490
      8 C         140.5427  140.1771  167.8814 C.ar    1  UNL1        0.0082
      9 C         139.5414  139.7453  166.8513 C.ar    1  UNL1        0.0197
     10 C         139.6478  140.2517  165.4434 C.ar    1  UNL1        0.0844
     11 N         138.6465  139.8199  164.4134 N.ar    1  UNL1       -0.2119
     12 C         138.7529  140.3263  163.0055 C.ar    1  UNL1        0.2211
     13 O         137.7516  139.8945  161.9754 O.3     1  UNL1       -0.4563
     14 C         137.6463  138.4483  161.5918 C.3     1  UNL1        0.2542
     15 C         140.0054  140.8021  160.0750 C.ar    1  UNL1        0.0245
     16 C         138.9803  140.8899  158.9835 C.ar    1  UNL1        0.0200
     17 C         139.0186  139.9212  157.8389 C.ar    1  UNL1        0.1019
     18 N         140.0821  138.8646  157.7859 N.ar    1  UNL1       -0.2076
     19 C         141.1072  138.7768  158.8774 C.ar    1  UNL1        0.2598
     20 C         141.0689  139.7456  160.0220 C.ar    1  UNL1        0.1879
     21 O         142.1707  137.7203  158.8244 O.3     1  UNL1       -0.4541
     22 C         142.6370  137.1915  157.5005 C.3     1  UNL1        0.2543
     23 O         142.0940  139.6578  161.1135 O.3     1  UNL1       -0.4670
     24 C         142.0615  138.5133  162.0827 C.3     1  UNL1        0.2527
     25 C         140.0352  143.2460  160.9563 C.3     1  UNL1        0.1162
     26 O         138.6513  143.4090  161.5116 O.3     1  UNL1       -0.3820
     27 H         138.3946  144.3435  161.4707 H       1  UNL1        0.2107
     28 C         143.9543  142.6497  160.7685 C.ar    1  UNL1        0.2271
     29 C         142.5704  142.8127  161.3237 C.ar    1  UNL1        0.0559
     30 C         141.4191  143.0829  160.4010 C.ar    1  UNL1        0.0117
     31 C         141.6517  143.1901  158.9231 C.ar    1  UNL1        0.0559
     32 C         143.0355  143.0271  158.3678 C.ar    1  UNL1        0.2272
     33 N         144.1869  142.7569  159.2905 N.ar    1  UNL1       -0.1767
     34 O         143.2681  143.1343  156.8898 O.3     1  UNL1       -0.4561
     35 C         144.4201  142.4112  156.2575 C.3     1  UNL1        0.2542
     36 O         145.1056  142.3795  161.6913 O.3     1  UNL1       -0.4602
     37 C         145.0074  141.2854  162.7126 C.3     1  UNL1        0.2071
     38 C         144.7158  142.9690  164.6697 C.3     1  UNL1        0.0040
     39 C         145.1140  141.6108  164.1730 C.3     1  UNL1        0.0474
     40 C         140.1033  144.7211  160.6930 C.3     1  UNL1        0.0491
     41 C         139.9030  145.6937  161.8173 C.3     1  UNL1        0.0750
     42 N         140.3379  145.3335  163.2070 N.3     1  UNL1       -0.2702
     43 C         141.7925  145.3710  163.5711 C.3     1  UNL1        0.0897
     44 C         139.3180  144.9357  164.2326 C.3     1  UNL1        0.0897
@<TRIPOS>BOND
     1    38    39    1
     2    39    37    1
     3    37    36    1
     4    36    28    1
     5    28    29   ar
     6    29    30   ar
     7    30    25    1
     8    25    26    1
     9    25    40    1
    10    40    41    1
    11    41    42    1
    12    42    43    1
    13    42    44    1
    14    25     1    1
    15     1     2    1
    16     2     3   ar
    17     3     4   ar
    18     4     5   ar
    19     5     6   ar
    20     6     7    1
    21     6     8   ar
    22     8     9   ar
    23     9    10   ar
    24    10    11   ar
    25    11    12   ar
    26    12    13    1
    27    13    14    1
    28     1    15    1
    29    15    16   ar
    30    16    17   ar
    31    17    18   ar
    32    18    19   ar
    33    19    21    1
    34    21    22    1
    35    19    20   ar
    36    20    23    1
    37    23    24    1
    38    30    31   ar
    39    31    32   ar
    40    32    34    1
    41    34    35    1
    42    32    33   ar
    43    33    28   ar
    44    12     2   ar
    45    20    15   ar
    46    10     4   ar
    47    26    27    1
@<TRIPOS>MOLECULE
*****
 44 47 0 0 0
SMALL
GASTEIGER

@<TRIPOS>ATOM
      1 C         141.7169  141.5416  159.1546 C.3     1  UNL1        0.0808
      2 C         141.4096  140.5478  160.2353 C.ar    1  UNL1        0.0375
      3 C         142.2809  140.4715  161.4539 C.ar    1  UNL1        0.0023
      4 C         141.9736  139.4777  162.5346 C.ar    1  UNL1        0.0181
      5 C         142.8450  139.4014  163.7532 C.ar    1  UNL1        0.0082
      6 C         142.5376  138.4076  164.8339 C.ar    1  UNL1        0.0347
      7 BR        143.4090  138.3313  166.0525 Br      1  UNL1       -0.0490
      8 C         141.3590  137.4901  164.6961 C.ar    1  UNL1        0.0082
      9 C         140.4877  137.5664  163.4775 C.ar    1  UNL1        0.0197
     10 C         140.7950  138.5602  162.3968 C.ar    1  UNL1        0.0844
     11 N         139.9236  138.6365  161.1782 N.ar    1  UNL1       -0.2119
     12 C         140.2310  139.6303  160.0974 C.ar    1  UNL1        0.2211
     13 O         139.3596  139.7066  158.8789 O.3     1  UNL1       -0.4563
     14 C         137.9656  140.2498  158.9864 C.3     1  UNL1        0.2542
     15 C         143.0356  141.4904  158.4415 C.ar    1  UNL1        0.0245
     16 C         144.0449  142.5799  158.6519 C.ar    1  UNL1        0.0200
     17 C         145.3635  142.5286  157.9388 C.ar    1  UNL1        0.1019
     18 N         145.6729  141.3879  157.0152 N.ar    1  UNL1       -0.2076
     19 C         144.6636  140.2983  156.8048 C.ar    1  UNL1        0.2598
     20 C         143.3449  140.3496  157.5179 C.ar    1  UNL1        0.1879
     21 O         144.9729  139.1576  155.8812 O.3     1  UNL1       -0.4541
     22 C         144.6481  139.2657  154.4209 C.3     1  UNL1        0.2543
     23 O         142.3356  139.2601  157.3075 O.3     1  UNL1       -0.4670
     24 C         142.5676  137.8992  157.8943 C.3     1  UNL1        0.2527
     25 C         140.7056  142.5866  158.7870 C.3     1  UNL1        0.1162
     26 O         140.6264  142.0220  157.3996 O.3     1  UNL1       -0.3820
     27 H         139.9927  142.5374  156.8764 H       1  UNL1        0.2107
     28 C         139.6713  143.6469  162.4689 C.ar    1  UNL1        0.2271
     29 C         139.5921  143.0822  161.0814 C.ar    1  UNL1        0.0559
     30 C         140.7848  143.1513  160.1744 C.ar    1  UNL1        0.0117
     31 C         142.0566  143.7849  160.6548 C.ar    1  UNL1        0.0559
     32 C         142.1358  144.3496  162.0422 C.ar    1  UNL1        0.2272
     33 N         140.9432  144.2805  162.9492 N.ar    1  UNL1       -0.1767
     34 O         143.4078  144.9833  162.5226 O.3     1  UNL1       -0.4561
     35 C         143.7072  145.0444  163.9911 C.3     1  UNL1        0.2542
     36 O         138.4786  143.5778  163.3759 O.3     1  UNL1       -0.4602
     37 C         138.0233  142.2549  163.9168 C.3     1  UNL1        0.2071
     38 C         139.9237  141.1905  165.3328 C.3     1  UNL1        0.0040
     39 C         139.0168  141.1532  164.1386 C.3     1  UNL1        0.0474
     40 C         139.6942  143.6316  158.4194 C.3     1  UNL1        0.0491
     41 C         139.8113  144.3626  157.1148 C.3     1  UNL1        0.0750
     42 N         141.1289  144.9454  156.6972 N.3     1  UNL1       -0.2702
     43 C         141.8759  145.8538  157.6282 C.3     1  UNL1        0.0897
     44 C         141.6995  144.6197  155.3487 C.3     1  UNL1        0.0897
@<TRIPOS>BOND
     1    38    39    1
     2    39    37    1
     3    37    36    1
     4    36    28    1
     5    28    29   ar
     6    29    30   ar
     7    30    25    1
     8    25    26    1
     9    25    40    1
    10    40    41    1
    11    41    42    1
    12    42    43    1
    13    42    44    1
    14    25     1    1
    15     1     2    1
    16     2     3   ar
    17     3     4   ar
    18     4     5   ar
    19     5     6   ar
    20     6     7    1
    21     6     8   ar
    22     8     9   ar
    23     9    10   ar
    24    10    11   ar
    25    11    12   ar
    26    12    13    1
    27    13    14    1
    28     1    15    1
    29    15    16   ar
    30    16    17   ar
    31    17    18   ar
    32    18    19   ar
    33    19    21    1
    34    21    22    1
    35    19    20   ar
    36    20    23    1
    37    23    24    1
    38    30    31   ar
    39    31    32   ar
    40    32    34    1
    41    34    35    1
    42    32    33   ar
    43    33    28   ar
    44    12     2   ar
    45    20    15   ar
    46    10     4   ar
    47    26    27    1
@<TRIPOS>MOLECULE
*****
 44 47 0 0 0
SMALL
GASTEIGER

@<TRIPOS>ATOM
      1 C         141.2548  141.6558  158.9162 C.3     1  UNL1        0.0808
      2 C         141.7935  142.2308  160.1927 C.ar    1  UNL1        0.0375
      3 C         141.7871  141.4085  161.4471 C.ar    1  UNL1        0.0023
      4 C         142.3258  141.9834  162.7235 C.ar    1  UNL1        0.0181
      5 C         142.3193  141.1611  163.9780 C.ar    1  UNL1        0.0082
      6 C         142.8581  141.7361  165.2545 C.ar    1  UNL1        0.0347
      7 BR        142.8516  140.9137  166.5090 Br      1  UNL1       -0.0490
      8 C         143.4032  143.1333  165.2764 C.ar    1  UNL1        0.0082
      9 C         143.4096  143.9556  164.0219 C.ar    1  UNL1        0.0197
     10 C         142.8709  143.3807  162.7455 C.ar    1  UNL1        0.0844
     11 N         142.8773  144.2030  161.4910 N.ar    1  UNL1       -0.2119
     12 C         142.3386  143.6280  160.2146 C.ar    1  UNL1        0.2211
     13 O         142.3450  144.4504  158.9601 O.3     1  UNL1       -0.4563
     14 C         141.3638  145.5726  158.7939 C.3     1  UNL1        0.2542
     15 C         141.9081  140.4542  158.3004 C.ar    1  UNL1        0.0245
     16 C         141.3095  139.0927  158.4952 C.ar    1  UNL1        0.0200
     17 C         141.9628  137.8911  157.8794 C.ar    1  UNL1        0.1019
     18 N         143.2148  138.0510  157.0687 N.ar    1  UNL1       -0.2076
     19 C         143.8133  139.4125  156.8738 C.ar    1  UNL1        0.2598
     20 C         143.1599  140.6141  157.4897 C.ar    1  UNL1        0.1879
     21 O         145.0652  139.5724  156.0632 O.3     1  UNL1       -0.4541
     22 C         144.9881  139.6199  154.5660 C.3     1  UNL1        0.2543
     23 O         143.7585  141.9757  157.2949 O.3     1  UNL1       -0.4670
     24 C         145.0099  142.3568  158.0289 C.3     1  UNL1        0.2527
     25 C         140.0627  142.2825  158.2556 C.3     1  UNL1        0.1162
     26 O         140.8889  142.5692  157.0369 O.3     1  UNL1       -0.3820
     27 H         140.3402  143.0131  156.3715 H       1  UNL1        0.2107
     28 C         137.9667  140.3064  160.9854 C.ar    1  UNL1        0.2271
     29 C         138.7928  140.5931  159.7666 C.ar    1  UNL1        0.0559
     30 C         139.2366  141.9958  159.4744 C.ar    1  UNL1        0.0117
     31 C         138.8544  143.1117  160.4009 C.ar    1  UNL1        0.0559
     32 C         138.0283  142.8250  161.6196 C.ar    1  UNL1        0.2272
     33 N         137.5844  141.4223  161.9119 N.ar    1  UNL1       -0.1767
     34 O         137.6460  143.9411  162.5462 O.3     1  UNL1       -0.4561
     35 C         138.7083  144.6984  163.2864 C.3     1  UNL1        0.2542
     36 O         137.5229  138.9036  161.2776 O.3     1  UNL1       -0.4602
     37 C         138.3229  138.0427  162.2097 C.3     1  UNL1        0.2071
     38 C         140.6326  137.3743  163.1938 C.3     1  UNL1        0.0040
     39 C         139.8194  138.0200  162.1113 C.3     1  UNL1        0.0474
     40 C         138.8707  142.9092  157.5951 C.3     1  UNL1        0.0491
     41 C         138.4962  142.5176  156.1963 C.3     1  UNL1        0.0750
     42 N         138.6095  143.5157  155.0823 N.3     1  UNL1       -0.2702
     43 C         139.3342  143.1522  153.8204 C.3     1  UNL1        0.0897
     44 C         137.9979  144.8774  155.2303 C.3     1  UNL1        0.0897
@<TRIPOS>BOND
     1    38    39    1
     2    39    37    1
     3    37    36    1
     4    36    28    1
     5    28    29   ar
     6    29    30   ar
     7    30    25    1
     8    25    26    1
     9    25    40    1
    10    40    41    1
    11    41    42    1
    12    42    43    1
    13    42    44    1
    14    25     1    1
    15     1     2    1
    16     2     3   ar
    17     3     4   ar
    18     4     5   ar
    19     5     6   ar
    20     6     7    1
    21     6     8   ar
    22     8     9   ar
    23     9    10   ar
    24    10    11   ar
    25    11    12   ar
    26    12    13    1
    27    13    14    1
    28     1    15    1
    29    15    16   ar
    30    16    17   ar
    31    17    18   ar
    32    18    19   ar
    33    19    21    1
    34    21    22    1
    35    19    20   ar
    36    20    23    1
    37    23    24    1
    38    30    31   ar
    39    31    32   ar
    40    32    34    1
    41    34    35    1
    42    32    33   ar
    43    33    28   ar
    44    12     2   ar
    45    20    15   ar
    46    10     4   ar
    47    26    27    1
