@<TRIPOS>MOLECULE
*****
 19 20 0 0 0
SMALL
GASTEIGER

@<TRIPOS>ATOM
      1 C         138.4239  139.2018  166.2071 C.2     1  UNL1        0.1855
      2 O         137.3118  138.4982  166.9268 O.2     1  UNL1       -0.2900
      3 C         139.5824  139.7599  166.9795 C.ar    1  UNL1        0.0369
      4 C         140.8729  140.0662  166.2792 C.ar    1  UNL1        0.0038
      5 C         142.0313  140.6243  167.0517 C.ar    1  UNL1        0.0123
      6 C         141.8991  140.8760  168.5245 C.ar    1  UNL1        0.0682
      7 CL        143.0575  141.4340  169.2969 Cl      1  UNL1       -0.0814
      8 C         140.6085  140.5696  169.2248 C.ar    1  UNL1        0.0683
      9 CL        140.4763  140.8213  170.6976 Cl      1  UNL1       -0.0814
     10 C         139.4501  140.0115  168.4523 C.ar    1  UNL1        0.0151
     11 C         138.3776  139.3473  164.7149 C.3     1  UNL1        0.0981
     12 C         138.4342  139.1966  163.2236 C.3     1  UNL1        0.0233
     13 C         137.9871  140.4902  162.6096 C.3     1  UNL1        0.0189
     14 C         137.6544  141.4404  163.7216 C.3     1  UNL1        0.0689
     15 N         137.8957  140.7340  165.0227 N.3     1  UNL1       -0.2938
     16 H         137.0286  140.6883  165.5578 H       1  UNL1        0.1235
     17 C         138.8692  137.9302  164.7191 C.3     1  UNL1        0.0219
     18 C         141.2543  136.9737  164.3358 C.3     1  UNL1        0.0001
     19 C         139.9678  137.5147  163.7860 C.3     1  UNL1        0.0018
@<TRIPOS>BOND
     1    18    19    1
     2    19    17    1
     3    17    11    1
     4    11     1    1
     5     1     2    2
     6     1     3    1
     7     3     4   ar
     8     4     5   ar
     9     5     6   ar
    10     6     7    1
    11     6     8   ar
    12     8     9    1
    13     8    10   ar
    14    11    12    1
    15    12    13    1
    16    13    14    1
    17    14    15    1
    18    15    11    1
    19    10     3   ar
    20    15    16    1
@<TRIPOS>MOLECULE
*****
 19 20 0 0 0
SMALL
GASTEIGER

@<TRIPOS>ATOM
      1 C         140.2428  140.3446  169.0254 C.2     1  UNL1        0.1855
      2 O         139.4715  139.7930  170.1876 O.2     1  UNL1       -0.2900
      3 C         139.6137  140.3965  167.6646 C.ar    1  UNL1        0.0369
      4 C         138.7018  139.2928  167.2172 C.ar    1  UNL1        0.0038
      5 C         138.0728  139.3448  165.8565 C.ar    1  UNL1        0.0123
      6 C         138.3556  140.5006  164.9432 C.ar    1  UNL1        0.0682
      7 CL        137.7265  140.5526  163.5824 Cl      1  UNL1       -0.0814
      8 C         139.2675  141.6044  165.3906 C.ar    1  UNL1        0.0683
      9 CL        139.5504  142.7601  164.4772 Cl      1  UNL1       -0.0814
     10 C         139.8966  141.5523  166.7513 C.ar    1  UNL1        0.0151
     11 C         141.6432  140.8441  169.2238 C.3     1  UNL1        0.0981
     12 C         143.1247  141.0629  169.3088 C.3     1  UNL1        0.0233
     13 C         143.3593  142.4370  169.8628 C.3     1  UNL1        0.0189
     14 C         142.0228  143.0674  170.1202 C.3     1  UNL1        0.0689
     15 N         140.9622  142.0830  169.7253 N.3     1  UNL1       -0.2938
     16 H         140.3788  142.4796  168.9886 H       1  UNL1        0.1235
     17 C         142.0314  139.5008  168.6809 C.3     1  UNL1        0.0219
     18 C         142.5444  138.8327  166.2231 C.3     1  UNL1        0.0001
     19 C         142.9942  139.4049  167.5347 C.3     1  UNL1        0.0018
@<TRIPOS>BOND
     1    18    19    1
     2    19    17    1
     3    17    11    1
     4    11     1    1
     5     1     2    2
     6     1     3    1
     7     3     4   ar
     8     4     5   ar
     9     5     6   ar
    10     6     7    1
    11     6     8   ar
    12     8     9    1
    13     8    10   ar
    14    11    12    1
    15    12    13    1
    16    13    14    1
    17    14    15    1
    18    15    11    1
    19    10     3   ar
    20    15    16    1
@<TRIPOS>MOLECULE
*****
 19 20 0 0 0
SMALL
GASTEIGER

@<TRIPOS>ATOM
      1 C         138.4860  139.1943  166.2168 C.2     1  UNL1        0.1855
      2 O         137.3193  138.5046  166.8595 O.2     1  UNL1       -0.2900
      3 C         139.6547  139.6267  167.0519 C.ar    1  UNL1        0.0369
      4 C         141.0366  139.6198  166.4687 C.ar    1  UNL1        0.0038
      5 C         142.2052  140.0521  167.3038 C.ar    1  UNL1        0.0123
      6 C         141.9918  140.4914  168.7221 C.ar    1  UNL1        0.0682
      7 CL        143.1605  140.9237  169.5572 Cl      1  UNL1       -0.0814
      8 C         140.6099  140.4983  169.3053 C.ar    1  UNL1        0.0683
      9 CL        140.3965  140.9375  170.7236 Cl      1  UNL1       -0.0814
     10 C         139.4413  140.0659  168.4702 C.ar    1  UNL1        0.0151
     11 C         138.4842  139.4516  164.7390 C.3     1  UNL1        0.0981
     12 C         138.4140  140.0030  163.3458 C.3     1  UNL1        0.0233
     13 C         138.6978  138.8830  162.3892 C.3     1  UNL1        0.0189
     14 C         138.9433  137.6394  163.1912 C.3     1  UNL1        0.0689
     15 N         138.8113  137.9908  164.6435 N.3     1  UNL1       -0.2938
     16 H         139.6890  137.8003  165.1269 H       1  UNL1        0.1235
     17 C         138.1575  140.8585  165.1436 C.3     1  UNL1        0.0219
     18 C         139.6913  142.9494  165.3049 C.3     1  UNL1        0.0001
     19 C         138.8575  142.0100  164.4848 C.3     1  UNL1        0.0018
@<TRIPOS>BOND
     1    18    19    1
     2    19    17    1
     3    17    11    1
     4    11     1    1
     5     1     2    2
     6     1     3    1
     7     3     4   ar
     8     4     5   ar
     9     5     6   ar
    10     6     7    1
    11     6     8   ar
    12     8     9    1
    13     8    10   ar
    14    11    12    1
    15    12    13    1
    16    13    14    1
    17    14    15    1
    18    15    11    1
    19    10     3   ar
    20    15    16    1
@<TRIPOS>MOLECULE
*****
 19 20 0 0 0
SMALL
GASTEIGER

@<TRIPOS>ATOM
      1 C         140.0470  140.0979  167.2060 C.2     1  UNL1        0.1855
      2 O         139.0583  139.5087  168.1680 O.2     1  UNL1       -0.2900
      3 C         139.6231  141.1911  166.2704 C.ar    1  UNL1        0.0369
      4 C         140.2322  142.5568  166.3877 C.ar    1  UNL1        0.0038
      5 C         139.8084  143.6499  165.4521 C.ar    1  UNL1        0.0123
      6 C         138.7754  143.3773  164.3992 C.ar    1  UNL1        0.0682
      7 CL        138.3515  144.4705  163.4636 Cl      1  UNL1       -0.0814
      8 C         138.1663  142.0116  164.2819 C.ar    1  UNL1        0.0683
      9 CL        137.1333  141.7390  163.2289 Cl      1  UNL1       -0.0814
     10 C         138.5902  140.9185  165.2175 C.ar    1  UNL1        0.0151
     11 C         141.4595  139.5939  167.1797 C.3     1  UNL1        0.0981
     12 C         142.8906  139.2246  167.4359 C.3     1  UNL1        0.0233
     13 C         143.3912  138.4574  166.2481 C.3     1  UNL1        0.0189
     14 C         142.2694  138.3525  165.2578 C.3     1  UNL1        0.0689
     15 N         141.0756  139.0549  165.8336 N.3     1  UNL1       -0.2938
     16 H         140.3015  138.3980  165.9316 H       1  UNL1        0.1235
     17 C         141.5481  140.2382  168.5314 C.3     1  UNL1        0.0219
     18 C         142.6181  142.4933  169.2526 C.3     1  UNL1        0.0001
     19 C         142.7594  141.0419  168.9011 C.3     1  UNL1        0.0018
@<TRIPOS>BOND
     1    18    19    1
     2    19    17    1
     3    17    11    1
     4    11     1    1
     5     1     2    2
     6     1     3    1
     7     3     4   ar
     8     4     5   ar
     9     5     6   ar
    10     6     7    1
    11     6     8   ar
    12     8     9    1
    13     8    10   ar
    14    11    12    1
    15    12    13    1
    16    13    14    1
    17    14    15    1
    18    15    11    1
    19    10     3   ar
    20    15    16    1
@<TRIPOS>MOLECULE
*****
 19 20 0 0 0
SMALL
GASTEIGER

@<TRIPOS>ATOM
      1 C         141.3517  141.9221  164.3755 C.2     1  UNL1        0.1855
      2 O         141.5055  140.8998  163.2887 O.2     1  UNL1       -0.2900
      3 C         140.7936  141.5211  165.7089 C.ar    1  UNL1        0.0369
      4 C         141.2471  142.2242  166.9539 C.ar    1  UNL1        0.0038
      5 C         140.6889  141.8232  168.2872 C.ar    1  UNL1        0.0123
      6 C         139.6773  140.7192  168.3754 C.ar    1  UNL1        0.0682
      7 CL        139.1192  140.3182  169.7088 Cl      1  UNL1       -0.0814
      8 C         139.2238  140.0161  167.1304 C.ar    1  UNL1        0.0683
      9 CL        138.2122  138.9121  167.2187 Cl      1  UNL1       -0.0814
     10 C         139.7820  140.4171  165.7972 C.ar    1  UNL1        0.0151
     11 C         141.7560  143.3454  164.1290 C.3     1  UNL1        0.0981
     12 C         141.8521  144.8159  163.8494 C.3     1  UNL1        0.0233
     13 C         143.3014  145.2012  163.8867 C.3     1  UNL1        0.0189
     14 C         144.1009  143.9687  164.1895 C.3     1  UNL1        0.0689
     15 N         143.1458  142.8217  164.3393 N.3     1  UNL1       -0.2938
     16 H         143.2277  142.4230  165.2745 H       1  UNL1        0.1235
     17 C         140.2817  143.5715  163.9704 C.3     1  UNL1        0.0219
     18 C         138.5318  144.8058  165.4417 C.3     1  UNL1        0.0001
     19 C         139.6621  144.8481  164.4565 C.3     1  UNL1        0.0018
@<TRIPOS>BOND
     1    18    19    1
     2    19    17    1
     3    17    11    1
     4    11     1    1
     5     1     2    2
     6     1     3    1
     7     3     4   ar
     8     4     5   ar
     9     5     6   ar
    10     6     7    1
    11     6     8   ar
    12     8     9    1
    13     8    10   ar
    14    11    12    1
    15    12    13    1
    16    13    14    1
    17    14    15    1
    18    15    11    1
    19    10     3   ar
    20    15    16    1
@<TRIPOS>MOLECULE
*****
 19 20 0 0 0
SMALL
GASTEIGER

@<TRIPOS>ATOM
      1 C         141.7033  141.9193  164.7049 C.2     1  UNL1        0.1855
      2 O         141.2516  141.1595  163.4930 O.2     1  UNL1       -0.2900
      3 C         141.0896  141.6308  166.0429 C.ar    1  UNL1        0.0369
      4 C         140.5329  140.2688  166.3347 C.ar    1  UNL1        0.0038
      5 C         139.9193  139.9803  167.6726 C.ar    1  UNL1        0.0123
      6 C         139.8623  141.0538  168.7188 C.ar    1  UNL1        0.0682
      7 CL        139.2486  140.7652  170.0568 Cl      1  UNL1       -0.0814
      8 C         140.4190  142.4157  168.4270 C.ar    1  UNL1        0.0683
      9 CL        140.3620  143.4891  169.4732 Cl      1  UNL1       -0.0814
     10 C         141.0326  142.7042  167.0891 C.ar    1  UNL1        0.0151
     11 C         142.7687  142.9677  164.5788 C.3     1  UNL1        0.0981
     12 C         144.0214  143.7926  164.5679 C.3     1  UNL1        0.0233
     13 C         143.6765  145.1523  164.0367 C.3     1  UNL1        0.0189
     14 C         142.2106  145.1678  163.7193 C.3     1  UNL1        0.0689
     15 N         141.6495  143.8176  164.0544 N.3     1  UNL1       -0.2938
     16 H         141.2531  143.3900  163.2174 H       1  UNL1        0.1235
     17 C         143.6651  141.8986  165.1296 C.3     1  UNL1        0.0219
     18 C         144.9724  139.8171  164.2877 C.3     1  UNL1        0.0001
     19 C         144.7344  141.2980  164.2660 C.3     1  UNL1        0.0018
@<TRIPOS>BOND
     1    18    19    1
     2    19    17    1
     3    17    11    1
     4    11     1    1
     5     1     2    2
     6     1     3    1
     7     3     4   ar
     8     4     5   ar
     9     5     6   ar
    10     6     7    1
    11     6     8   ar
    12     8     9    1
    13     8    10   ar
    14    11    12    1
    15    12    13    1
    16    13    14    1
    17    14    15    1
    18    15    11    1
    19    10     3   ar
    20    15    16    1
@<TRIPOS>MOLECULE
*****
 19 20 0 0 0
SMALL
GASTEIGER

@<TRIPOS>ATOM
      1 C         141.0981  141.8567  165.1549 C.2     1  UNL1        0.1855
      2 O         140.6128  140.7793  164.2309 O.2     1  UNL1       -0.2900
      3 C         141.0436  141.6518  166.6399 C.ar    1  UNL1        0.0369
      4 C         141.3271  140.2985  167.2212 C.ar    1  UNL1        0.0038
      5 C         141.2726  140.0937  168.7062 C.ar    1  UNL1        0.0123
      6 C         140.9345  141.2423  169.6097 C.ar    1  UNL1        0.0682
      7 CL        140.8800  141.0375  171.0947 Cl      1  UNL1       -0.0814
      8 C         140.6510  142.5957  169.0284 C.ar    1  UNL1        0.0683
      9 CL        140.3129  143.7443  169.9320 Cl      1  UNL1       -0.0814
     10 C         140.7055  142.8004  167.5435 C.ar    1  UNL1        0.0151
     11 C         141.6379  143.1388  164.5939 C.3     1  UNL1        0.0981
     12 C         141.8778  144.4775  163.9612 C.3     1  UNL1        0.0233
     13 C         143.3482  144.7663  164.0307 C.3     1  UNL1        0.0189
     14 C         144.0169  143.6060  164.7064 C.3     1  UNL1        0.0689
     15 N         142.9600  142.6002  165.0545 N.3     1  UNL1       -0.2938
     16 H         142.9412  142.4529  166.0636 H       1  UNL1        0.1235
     17 C         140.2030  143.4093  164.2507 C.3     1  UNL1        0.0219
     18 C         138.4927  144.9133  165.5009 C.3     1  UNL1        0.0001
     19 C         139.6114  144.7625  164.5131 C.3     1  UNL1        0.0018
@<TRIPOS>BOND
     1    18    19    1
     2    19    17    1
     3    17    11    1
     4    11     1    1
     5     1     2    2
     6     1     3    1
     7     3     4   ar
     8     4     5   ar
     9     5     6   ar
    10     6     7    1
    11     6     8   ar
    12     8     9    1
    13     8    10   ar
    14    11    12    1
    15    12    13    1
    16    13    14    1
    17    14    15    1
    18    15    11    1
    19    10     3   ar
    20    15    16    1
@<TRIPOS>MOLECULE
*****
 19 20 0 0 0
SMALL
GASTEIGER

@<TRIPOS>ATOM
      1 C         141.3920  141.9951  167.0445 C.2     1  UNL1        0.1855
      2 O         142.8691  141.8959  167.2861 O.2     1  UNL1       -0.2900
      3 C         140.8691  142.8700  165.9439 C.ar    1  UNL1        0.0369
      4 C         139.5792  143.6136  166.1255 C.ar    1  UNL1        0.0038
      5 C         139.0564  144.4884  165.0249 C.ar    1  UNL1        0.0123
      6 C         139.8236  144.6196  163.7426 C.ar    1  UNL1        0.0682
      7 CL        139.3008  145.4944  162.6420 Cl      1  UNL1       -0.0814
      8 C         141.1136  143.8760  163.5610 C.ar    1  UNL1        0.0683
      9 CL        141.8808  144.0071  162.2787 Cl      1  UNL1       -0.0814
     10 C         141.6363  143.0012  164.6616 C.ar    1  UNL1        0.0151
     11 C         140.4377  141.2196  167.9035 C.3     1  UNL1        0.0981
     12 C         139.4661  140.2536  168.5140 C.3     1  UNL1        0.0233
     13 C         139.1484  140.7296  169.9006 C.3     1  UNL1        0.0189
     14 C         139.9238  141.9897  170.1470 C.3     1  UNL1        0.0689
     15 N         140.7206  142.2926  168.9128 N.3     1  UNL1       -0.2938
     16 H         141.7156  142.3031  169.1371 H       1  UNL1        0.1235
     17 C         140.3544  140.3087  166.7146 C.3     1  UNL1        0.0219
     18 C         138.3137  140.2199  165.1090 C.3     1  UNL1        0.0001
     19 C         139.0371  139.7095  166.3199 C.3     1  UNL1        0.0018
@<TRIPOS>BOND
     1    18    19    1
     2    19    17    1
     3    17    11    1
     4    11     1    1
     5     1     2    2
     6     1     3    1
     7     3     4   ar
     8     4     5   ar
     9     5     6   ar
    10     6     7    1
    11     6     8   ar
    12     8     9    1
    13     8    10   ar
    14    11    12    1
    15    12    13    1
    16    13    14    1
    17    14    15    1
    18    15    11    1
    19    10     3   ar
    20    15    16    1
@<TRIPOS>MOLECULE
*****
 19 20 0 0 0
SMALL
GASTEIGER

@<TRIPOS>ATOM
      1 C         141.0404  142.1657  165.4759 C.2     1  UNL1        0.1855
      2 O         142.1962  142.2019  164.5206 O.2     1  UNL1       -0.2900
      3 C         141.2722  141.8402  166.9217 C.ar    1  UNL1        0.0369
      4 C         142.3207  140.8388  167.3063 C.ar    1  UNL1        0.0038
      5 C         142.5525  140.5134  168.7520 C.ar    1  UNL1        0.0123
      6 C         141.7359  141.1894  169.8133 C.ar    1  UNL1        0.0682
      7 CL        141.9678  140.8639  171.2591 Cl      1  UNL1       -0.0814
      8 C         140.6874  142.1907  169.4287 C.ar    1  UNL1        0.0683
      9 CL        139.8708  142.8667  170.4900 Cl      1  UNL1       -0.0814
     10 C         140.4556  142.5162  167.9830 C.ar    1  UNL1        0.0151
     11 C         139.6526  142.4549  164.9854 C.3     1  UNL1        0.0981
     12 C         138.2424  142.4320  164.4750 C.3     1  UNL1        0.0233
     13 C         137.7688  143.8505  164.3575 C.3     1  UNL1        0.0189
     14 C         138.8865  144.7500  164.7953 C.3     1  UNL1        0.0689
     15 N         140.0508  143.8875  165.1834 N.3     1  UNL1       -0.2938
     16 H         140.2897  144.0483  166.1619 H       1  UNL1        0.1235
     17 C         139.5447  140.9618  164.8900 C.3     1  UNL1        0.0219
     18 C         138.3207  139.1944  166.3489 C.3     1  UNL1        0.0001
     19 C         138.2792  140.2732  165.3075 C.3     1  UNL1        0.0018
@<TRIPOS>BOND
     1    18    19    1
     2    19    17    1
     3    17    11    1
     4    11     1    1
     5     1     2    2
     6     1     3    1
     7     3     4   ar
     8     4     5   ar
     9     5     6   ar
    10     6     7    1
    11     6     8   ar
    12     8     9    1
    13     8    10   ar
    14    11    12    1
    15    12    13    1
    16    13    14    1
    17    14    15    1
    18    15    11    1
    19    10     3   ar
    20    15    16    1
