@<TRIPOS>MOLECULE
*****
 30 33 0 0 0
SMALL
GASTEIGER

@<TRIPOS>ATOM
      1 N         137.3926  140.8630  163.0058 N.pl3   1  UNL1       -0.2979
      2 H         136.4992  140.5176  163.2333 H       1  UNL1        0.1536
      3 C         139.9839  138.5754  161.0559 C.ar    1  UNL1        0.1531
      4 C         139.2037  139.1945  162.1774 C.ar    1  UNL1        0.0528
      5 C         138.1728  140.2439  161.8841 C.ar    1  UNL1        0.0525
      6 C         137.9220  140.6741  160.4692 C.ar    1  UNL1        0.0161
      7 C         138.7022  140.0549  159.3476 C.ar    1  UNL1        0.0189
      8 C         139.7332  139.0056  159.6410 C.ar    1  UNL1        0.0825
      9 N         140.5134  138.3864  158.5193 N.pl3   1  UNL1       -0.3004
     10 C         139.7944  137.7173  157.3856 C.3     1  UNL1        0.1231
     11 C         140.5745  137.0982  156.2640 C.3     1  UNL1        0.1636
     12 O         142.0737  137.1482  156.2761 O.3     1  UNL1       -0.3501
     13 C         142.7926  137.8173  157.4098 C.3     1  UNL1        0.1636
     14 C         142.0124  138.4365  158.5314 C.3     1  UNL1        0.1231
     15 C         141.7391  137.5327  162.6628 C.3     1  UNL1        0.2525
     16 O         141.0149  137.5261  161.3492 O.3     1  UNL1       -0.4701
     17 C         137.9737  142.0084  163.7807 C.ar    1  UNL1        0.1322
     18 C         139.0530  141.7587  164.7920 C.ar    1  UNL1        0.0344
     19 C         139.6341  142.9041  165.5670 C.ar    1  UNL1        0.0043
     20 C         139.1358  144.2991  165.3305 C.ar    1  UNL1        0.0208
     21 C         138.0565  144.5486  164.3192 C.ar    1  UNL1        0.1003
     22 N         137.4754  143.4033  163.5443 N.ar    1  UNL1       -0.2291
     23 C         140.7134  142.6546  166.5783 C.ar    1  UNL1        0.0008
     24 C         142.1370  142.4981  166.1326 C.ar    1  UNL1        0.0000
     25 C         143.2164  142.2485  167.1439 C.ar    1  UNL1        0.0007
     26 C         142.8721  142.1554  168.6009 C.ar    1  UNL1        0.0103
     27 C         141.4483  142.3119  169.0465 C.ar    1  UNL1        0.0684
     28 C         140.3690  142.5615  168.0352 C.ar    1  UNL1        0.0103
     29 C         141.1040  142.2188  170.5035 C.1     1  UNL1        0.1004
     30 N         140.7596  142.1258  171.9605 N.1     1  UNL1       -0.1908
@<TRIPOS>BOND
     1    15    16    1
     2    16     3    1
     3     3     4   ar
     4     4     5   ar
     5     5     1    1
     6     1    17    1
     7    17    18   ar
     8    18    19   ar
     9    19    23    1
    10    23    24   ar
    11    24    25   ar
    12    25    26   ar
    13    26    27   ar
    14    27    29    1
    15    29    30    3
    16    27    28   ar
    17    19    20   ar
    18    20    21   ar
    19    21    22   ar
    20     5     6   ar
    21     6     7   ar
    22     7     8   ar
    23     8     9    1
    24     9    10    1
    25    10    11    1
    26    11    12    1
    27    12    13    1
    28    13    14    1
    29     8     3   ar
    30    14     9    1
    31    22    17   ar
    32    28    23   ar
    33     1     2    1
@<TRIPOS>MOLECULE
*****
 30 33 0 0 0
SMALL
GASTEIGER

@<TRIPOS>ATOM
      1 N         137.4239  140.6706  162.9858 N.pl3   1  UNL1       -0.2979
      2 H         136.5515  140.2969  163.2475 H       1  UNL1        0.1536
      3 C         138.9938  140.1603  159.3767 C.ar    1  UNL1        0.1531
      4 C         138.2308  140.7648  160.5179 C.ar    1  UNL1        0.0528
      5 C         138.1869  140.0660  161.8445 C.ar    1  UNL1        0.0525
      6 C         138.9059  138.7627  162.0298 C.ar    1  UNL1        0.0161
      7 C         139.6688  138.1582  160.8886 C.ar    1  UNL1        0.0189
      8 C         139.7128  138.8570  159.5620 C.ar    1  UNL1        0.0825
      9 N         140.4758  138.2525  158.4208 N.pl3   1  UNL1       -0.3004
     10 C         141.9748  138.2130  158.4581 C.3     1  UNL1        0.1231
     11 C         142.7378  137.6084  157.3170 C.3     1  UNL1        0.1636
     12 O         142.0018  137.0433  156.1383 O.3     1  UNL1       -0.3501
     13 C         140.5027  137.0828  156.1010 C.3     1  UNL1        0.1636
     14 C         139.7397  137.6874  157.2423 C.3     1  UNL1        0.1231
     15 C         137.7646  141.3086  157.3967 C.3     1  UNL1        0.2525
     16 O         139.0377  140.8592  158.0502 O.3     1  UNL1       -0.4701
     17 C         137.9901  141.8446  163.7281 C.ar    1  UNL1        0.1322
     18 C         139.0638  141.6359  164.7547 C.ar    1  UNL1        0.0344
     19 C         139.6300  142.8099  165.4971 C.ar    1  UNL1        0.0043
     20 C         139.1225  144.1926  165.2129 C.ar    1  UNL1        0.0208
     21 C         138.0489  144.4013  164.1864 C.ar    1  UNL1        0.1003
     22 N         137.4827  143.2273  163.4440 N.ar    1  UNL1       -0.2291
     23 C         140.7036  142.6013  166.5236 C.ar    1  UNL1        0.0008
     24 C         142.1344  142.4632  166.0949 C.ar    1  UNL1        0.0000
     25 C         143.2081  142.2546  167.1215 C.ar    1  UNL1        0.0007
     26 C         142.8509  142.1839  168.5766 C.ar    1  UNL1        0.0103
     27 C         141.4201  142.3220  169.0052 C.ar    1  UNL1        0.0684
     28 C         140.3465  142.5306  167.9787 C.ar    1  UNL1        0.0103
     29 C         141.0629  142.2513  170.4604 C.1     1  UNL1        0.1004
     30 N         140.7058  142.1807  171.9155 N.1     1  UNL1       -0.1908
@<TRIPOS>BOND
     1    15    16    1
     2    16     3    1
     3     3     4   ar
     4     4     5   ar
     5     5     1    1
     6     1    17    1
     7    17    18   ar
     8    18    19   ar
     9    19    23    1
    10    23    24   ar
    11    24    25   ar
    12    25    26   ar
    13    26    27   ar
    14    27    29    1
    15    29    30    3
    16    27    28   ar
    17    19    20   ar
    18    20    21   ar
    19    21    22   ar
    20     5     6   ar
    21     6     7   ar
    22     7     8   ar
    23     8     9    1
    24     9    10    1
    25    10    11    1
    26    11    12    1
    27    12    13    1
    28    13    14    1
    29     8     3   ar
    30    14     9    1
    31    22    17   ar
    32    28    23   ar
    33     1     2    1
@<TRIPOS>MOLECULE
*****
 30 33 0 0 0
SMALL
GASTEIGER

@<TRIPOS>ATOM
      1 N         138.8046  138.2460  163.9879 N.pl3   1  UNL1       -0.2979
      2 H         138.7283  137.2676  163.9103 H       1  UNL1        0.1536
      3 C         141.0806  139.9691  166.7450 C.ar    1  UNL1        0.1531
      4 C         140.6471  139.3511  165.4488 C.ar    1  UNL1        0.0528
      5 C         139.2380  138.8640  165.2842 C.ar    1  UNL1        0.0525
      6 C         138.2623  138.9949  166.4159 C.ar    1  UNL1        0.0161
      7 C         138.6957  139.6128  167.7122 C.ar    1  UNL1        0.0189
      8 C         140.1048  140.0999  167.8767 C.ar    1  UNL1        0.0825
      9 N         140.5382  140.7179  169.1730 N.pl3   1  UNL1       -0.3004
     10 C         141.5629  140.0305  170.0259 C.3     1  UNL1        0.1231
     11 C         141.9963  140.6484  171.3222 C.3     1  UNL1        0.1636
     12 O         141.4050  141.9538  171.7656 O.3     1  UNL1       -0.3501
     13 C         140.3803  142.6411  170.9126 C.3     1  UNL1        0.1636
     14 C         139.9469  142.0232  169.6163 C.3     1  UNL1        0.1231
     15 C         142.8798  141.8106  166.3965 C.3     1  UNL1        0.2525
     16 O         142.4897  140.4561  166.9095 O.3     1  UNL1       -0.4701
     17 C         138.4875  139.1189  162.8100 C.ar    1  UNL1        0.1322
     18 C         138.9333  140.5511  162.7962 C.ar    1  UNL1        0.0344
     19 C         138.6162  141.4240  161.6183 C.ar    1  UNL1        0.0043
     20 C         137.8534  140.8646  160.4541 C.ar    1  UNL1        0.0208
     21 C         137.4077  139.4325  160.4679 C.ar    1  UNL1        0.1003
     22 N         137.7248  138.5596  161.6458 N.ar    1  UNL1       -0.2291
     23 C         139.0618  142.8562  161.6045 C.ar    1  UNL1        0.0008
     24 C         138.6416  143.7830  162.7065 C.ar    1  UNL1        0.0000
     25 C         139.0873  145.2152  162.6927 C.ar    1  UNL1        0.0007
     26 C         139.9532  145.7206  161.5770 C.ar    1  UNL1        0.0103
     27 C         140.3734  144.7937  160.4750 C.ar    1  UNL1        0.0684
     28 C         139.9278  143.3615  160.4888 C.ar    1  UNL1        0.0103
     29 C         141.2393  145.2990  159.3593 C.1     1  UNL1        0.1004
     30 N         142.1052  145.8043  158.2436 N.1     1  UNL1       -0.1908
@<TRIPOS>BOND
     1    15    16    1
     2    16     3    1
     3     3     4   ar
     4     4     5   ar
     5     5     1    1
     6     1    17    1
     7    17    18   ar
     8    18    19   ar
     9    19    23    1
    10    23    24   ar
    11    24    25   ar
    12    25    26   ar
    13    26    27   ar
    14    27    29    1
    15    29    30    3
    16    27    28   ar
    17    19    20   ar
    18    20    21   ar
    19    21    22   ar
    20     5     6   ar
    21     6     7   ar
    22     7     8   ar
    23     8     9    1
    24     9    10    1
    25    10    11    1
    26    11    12    1
    27    12    13    1
    28    13    14    1
    29     8     3   ar
    30    14     9    1
    31    22    17   ar
    32    28    23   ar
    33     1     2    1
@<TRIPOS>MOLECULE
*****
 30 33 0 0 0
SMALL
GASTEIGER

@<TRIPOS>ATOM
      1 N         141.0791  145.3607  161.9940 N.pl3   1  UNL1       -0.2979
      2 H         141.2642  146.3206  162.1107 H       1  UNL1        0.1536
      3 C         143.6970  142.8111  160.4461 C.ar    1  UNL1        0.1531
      4 C         142.9186  143.6083  161.4502 C.ar    1  UNL1        0.0528
      5 C         141.8575  144.5634  160.9898 C.ar    1  UNL1        0.0525
      6 C         141.5749  144.7212  159.5251 C.ar    1  UNL1        0.0161
      7 C         142.3533  143.9239  158.5210 C.ar    1  UNL1        0.0189
      8 C         143.4144  142.9689  158.9815 C.ar    1  UNL1        0.0825
      9 N         144.1928  142.1716  157.9772 N.pl3   1  UNL1       -0.3004
     10 C         143.6032  140.9231  157.3911 C.3     1  UNL1        0.1231
     11 C         144.3816  140.1258  156.3869 C.3     1  UNL1        0.1636
     12 O         145.7497  140.5770  155.9688 O.3     1  UNL1       -0.3501
     13 C         146.3393  141.8256  156.5549 C.3     1  UNL1        0.1636
     14 C         145.5608  142.6228  157.5591 C.3     1  UNL1        0.1231
     15 C         145.1841  141.8448  162.3447 C.3     1  UNL1        0.2525
     16 O         144.7580  141.8560  160.9066 O.3     1  UNL1       -0.4701
     17 C         140.0186  144.6954  162.8204 C.ar    1  UNL1        0.1322
     18 C         140.4049  143.8598  164.0047 C.ar    1  UNL1        0.0344
     19 C         139.3445  143.1945  164.8311 C.ar    1  UNL1        0.0043
     20 C         137.8978  143.3649  164.4732 C.ar    1  UNL1        0.0208
     21 C         137.5116  144.2006  163.2889 C.ar    1  UNL1        0.1003
     22 N         138.5720  144.8658  162.4625 N.ar    1  UNL1       -0.2291
     23 C         139.7308  142.3589  166.0154 C.ar    1  UNL1        0.0008
     24 C         139.3751  140.9022  166.0534 C.ar    1  UNL1        0.0000
     25 C         139.7613  140.0665  167.2377 C.ar    1  UNL1        0.0007
     26 C         140.5032  140.6876  168.3839 C.ar    1  UNL1        0.0103
     27 C         140.8589  142.1444  168.3459 C.ar    1  UNL1        0.0684
     28 C         140.4727  142.9800  167.1616 C.ar    1  UNL1        0.0103
     29 C         141.6008  142.7654  169.4921 C.1     1  UNL1        0.1004
     30 N         142.3428  143.3865  170.6383 N.1     1  UNL1       -0.1908
@<TRIPOS>BOND
     1    15    16    1
     2    16     3    1
     3     3     4   ar
     4     4     5   ar
     5     5     1    1
     6     1    17    1
     7    17    18   ar
     8    18    19   ar
     9    19    23    1
    10    23    24   ar
    11    24    25   ar
    12    25    26   ar
    13    26    27   ar
    14    27    29    1
    15    29    30    3
    16    27    28   ar
    17    19    20   ar
    18    20    21   ar
    19    21    22   ar
    20     5     6   ar
    21     6     7   ar
    22     7     8   ar
    23     8     9    1
    24     9    10    1
    25    10    11    1
    26    11    12    1
    27    12    13    1
    28    13    14    1
    29     8     3   ar
    30    14     9    1
    31    22    17   ar
    32    28    23   ar
    33     1     2    1
@<TRIPOS>MOLECULE
*****
 30 33 0 0 0
SMALL
GASTEIGER

@<TRIPOS>ATOM
      1 N         144.3672  142.9228  163.3187 N.pl3   1  UNL1       -0.2979
      2 H         145.1316  143.4769  163.5978 H       1  UNL1        0.1536
      3 C         141.6353  144.6891  161.0456 C.ar    1  UNL1        0.1531
      4 C         142.4425  144.3018  162.2490 C.ar    1  UNL1        0.0528
      5 C         143.5599  143.3101  162.1152 C.ar    1  UNL1        0.0525
      6 C         143.8700  142.7056  160.7779 C.ar    1  UNL1        0.0161
      7 C         143.0628  143.0929  159.5744 C.ar    1  UNL1        0.0189
      8 C         141.9454  144.0846  159.7083 C.ar    1  UNL1        0.0825
      9 N         141.1381  144.4719  158.5048 N.pl3   1  UNL1       -0.3004
     10 C         140.0370  143.5759  158.0203 C.3     1  UNL1        0.1231
     11 C         139.2297  143.9631  156.8169 C.3     1  UNL1        0.1636
     12 O         139.5236  145.2463  156.0978 O.3     1  UNL1       -0.3501
     13 C         140.6247  146.1423  156.5822 C.3     1  UNL1        0.1636
     14 C         141.4320  145.7550  157.7857 C.3     1  UNL1        0.1231
     15 C         139.4534  145.4759  162.2162 C.3     1  UNL1        0.2525
     16 O         140.5179  145.6808  161.1794 O.3     1  UNL1       -0.4701
     17 C         144.0097  141.6913  164.0969 C.ar    1  UNL1        0.1322
     18 C         143.4144  141.8170  165.4681 C.ar    1  UNL1        0.0344
     19 C         143.0570  140.5855  166.2463 C.ar    1  UNL1        0.0043
     20 C         143.2949  139.2283  165.6534 C.ar    1  UNL1        0.0208
     21 C         143.8901  139.1026  164.2824 C.ar    1  UNL1        0.1003
     22 N         144.2476  140.3341  163.5041 N.ar    1  UNL1       -0.2291
     23 C         142.4617  140.7112  167.6173 C.ar    1  UNL1        0.0008
     24 C         142.4742  139.5372  168.5508 C.ar    1  UNL1        0.0000
     25 C         141.8789  139.6628  169.9220 C.ar    1  UNL1        0.0007
     26 C         141.2712  140.9625  170.3595 C.ar    1  UNL1        0.0103
     27 C         141.2587  142.1366  169.4259 C.ar    1  UNL1        0.0684
     28 C         141.8540  142.0109  168.0549 C.ar    1  UNL1        0.0103
     29 C         140.6510  143.4363  169.8635 C.1     1  UNL1        0.1004
     30 N         140.0433  144.7360  170.3010 N.1     1  UNL1       -0.1908
@<TRIPOS>BOND
     1    15    16    1
     2    16     3    1
     3     3     4   ar
     4     4     5   ar
     5     5     1    1
     6     1    17    1
     7    17    18   ar
     8    18    19   ar
     9    19    23    1
    10    23    24   ar
    11    24    25   ar
    12    25    26   ar
    13    26    27   ar
    14    27    29    1
    15    29    30    3
    16    27    28   ar
    17    19    20   ar
    18    20    21   ar
    19    21    22   ar
    20     5     6   ar
    21     6     7   ar
    22     7     8   ar
    23     8     9    1
    24     9    10    1
    25    10    11    1
    26    11    12    1
    27    12    13    1
    28    13    14    1
    29     8     3   ar
    30    14     9    1
    31    22    17   ar
    32    28    23   ar
    33     1     2    1
@<TRIPOS>MOLECULE
*****
 30 33 0 0 0
SMALL
GASTEIGER

@<TRIPOS>ATOM
      1 N         144.4128  139.2369  162.5480 N.pl3   1  UNL1       -0.2979
      2 H         145.1140  138.5552  162.6618 H       1  UNL1        0.1536
      3 C         141.0728  138.5166  160.5291 C.ar    1  UNL1        0.1531
      4 C         142.0475  138.6253  161.6641 C.ar    1  UNL1        0.0528
      5 C         143.4382  139.1282  161.4130 C.ar    1  UNL1        0.0525
      6 C         143.8542  139.5224  160.0268 C.ar    1  UNL1        0.0161
      7 C         142.8796  139.4138  158.8918 C.ar    1  UNL1        0.0189
      8 C         141.4889  138.9109  159.1430 C.ar    1  UNL1        0.0825
      9 N         140.5142  138.8022  158.0079 N.pl3   1  UNL1       -0.3004
     10 C         139.6341  139.9663  157.6611 C.3     1  UNL1        0.1231
     11 C         138.6594  139.8576  156.5261 C.3     1  UNL1        0.1636
     12 O         138.5650  138.5849  155.7379 O.3     1  UNL1       -0.3501
     13 C         139.4451  137.4209  156.0846 C.3     1  UNL1        0.1636
     14 C         140.4198  137.5295  157.2197 C.3     1  UNL1        0.1231
     15 C         139.1445  137.9625  162.1796 C.3     1  UNL1        0.2525
     16 O         139.6822  138.0137  160.7803 O.3     1  UNL1       -0.4701
     17 C         144.3191  140.3842  163.5098 C.ar    1  UNL1        0.1322
     18 C         143.5530  140.2289  164.7901 C.ar    1  UNL1        0.0344
     19 C         143.4593  141.3762  165.7518 C.ar    1  UNL1        0.0043
     20 C         144.1317  142.6787  165.4333 C.ar    1  UNL1        0.0208
     21 C         144.8978  142.8339  164.1531 C.ar    1  UNL1        0.1003
     22 N         144.9915  141.6866  163.1913 N.ar    1  UNL1       -0.2291
     23 C         142.6932  141.2210  167.0320 C.ar    1  UNL1        0.0008
     24 C         142.5552  139.8677  167.6641 C.ar    1  UNL1        0.0000
     25 C         141.7891  139.7125  168.9443 C.ar    1  UNL1        0.0007
     26 C         141.1611  140.9106  169.5925 C.ar    1  UNL1        0.0103
     27 C         141.2992  142.2639  168.9605 C.ar    1  UNL1        0.0684
     28 C         142.0652  142.4191  167.6802 C.ar    1  UNL1        0.0103
     29 C         140.6712  143.4620  169.6087 C.1     1  UNL1        0.1004
     30 N         140.0432  144.6601  170.2569 N.1     1  UNL1       -0.1908
@<TRIPOS>BOND
     1    15    16    1
     2    16     3    1
     3     3     4   ar
     4     4     5   ar
     5     5     1    1
     6     1    17    1
     7    17    18   ar
     8    18    19   ar
     9    19    23    1
    10    23    24   ar
    11    24    25   ar
    12    25    26   ar
    13    26    27   ar
    14    27    29    1
    15    29    30    3
    16    27    28   ar
    17    19    20   ar
    18    20    21   ar
    19    21    22   ar
    20     5     6   ar
    21     6     7   ar
    22     7     8   ar
    23     8     9    1
    24     9    10    1
    25    10    11    1
    26    11    12    1
    27    12    13    1
    28    13    14    1
    29     8     3   ar
    30    14     9    1
    31    22    17   ar
    32    28    23   ar
    33     1     2    1
@<TRIPOS>MOLECULE
*****
 30 33 0 0 0
SMALL
GASTEIGER

@<TRIPOS>ATOM
      1 N         141.1146  137.3145  163.9126 N.pl3   1  UNL1       -0.2979
      2 H         141.2460  136.3425  163.9974 H       1  UNL1        0.1536
      3 C         141.2338  139.5132  160.6109 C.ar    1  UNL1        0.1531
      4 C         140.7043  138.7867  161.8115 C.ar    1  UNL1        0.0528
      5 C         141.6442  138.0411  162.7119 C.ar    1  UNL1        0.0525
      6 C         143.1137  138.0220  162.4116 C.ar    1  UNL1        0.0161
      7 C         143.6432  138.7486  161.2109 C.ar    1  UNL1        0.0189
      8 C         142.7033  139.4942  160.3106 C.ar    1  UNL1        0.0825
      9 N         143.2329  140.2208  159.1098 N.pl3   1  UNL1       -0.3004
     10 C         143.3150  139.5210  157.7856 C.3     1  UNL1        0.1231
     11 C         143.8446  140.2475  156.5850 C.3     1  UNL1        0.1636
     12 O         144.2921  141.6739  156.7084 O.3     1  UNL1       -0.3501
     13 C         144.2100  142.3737  158.0326 C.3     1  UNL1        0.1636
     14 C         143.6804  141.6471  159.2334 C.3     1  UNL1        0.1231
     15 C         139.6673  139.5628  158.5388 C.3     1  UNL1        0.2525
     16 O         140.2939  140.2588  159.7105 O.3     1  UNL1       -0.4701
     17 C         140.3847  138.0689  164.9841 C.ar    1  UNL1        0.1322
     18 C         141.1285  139.0283  165.8652 C.ar    1  UNL1        0.0344
     19 C         140.3987  139.7827  166.9367 C.ar    1  UNL1        0.0043
     20 C         138.9249  139.5777  167.1272 C.ar    1  UNL1        0.0208
     21 C         138.1812  138.6183  166.2461 C.ar    1  UNL1        0.1003
     22 N         138.9111  137.8639  165.1746 N.ar    1  UNL1       -0.2291
     23 C         141.1424  140.7421  167.8178 C.ar    1  UNL1        0.0008
     24 C         142.6022  140.5320  168.0910 C.ar    1  UNL1        0.0000
     25 C         143.3461  141.4915  168.9721 C.ar    1  UNL1        0.0007
     26 C         142.6300  142.6610  169.5800 C.ar    1  UNL1        0.0103
     27 C         141.1701  142.8710  169.3067 C.ar    1  UNL1        0.0684
     28 C         140.4263  141.9116  168.4257 C.ar    1  UNL1        0.0103
     29 C         140.4540  144.0405  169.9146 C.1     1  UNL1        0.1004
     30 N         139.7379  145.2100  170.5224 N.1     1  UNL1       -0.1908
@<TRIPOS>BOND
     1    15    16    1
     2    16     3    1
     3     3     4   ar
     4     4     5   ar
     5     5     1    1
     6     1    17    1
     7    17    18   ar
     8    18    19   ar
     9    19    23    1
    10    23    24   ar
    11    24    25   ar
    12    25    26   ar
    13    26    27   ar
    14    27    29    1
    15    29    30    3
    16    27    28   ar
    17    19    20   ar
    18    20    21   ar
    19    21    22   ar
    20     5     6   ar
    21     6     7   ar
    22     7     8   ar
    23     8     9    1
    24     9    10    1
    25    10    11    1
    26    11    12    1
    27    12    13    1
    28    13    14    1
    29     8     3   ar
    30    14     9    1
    31    22    17   ar
    32    28    23   ar
    33     1     2    1
@<TRIPOS>MOLECULE
*****
 30 33 0 0 0
SMALL
GASTEIGER

@<TRIPOS>ATOM
      1 N         137.2287  141.0085  162.7441 N.pl3   1  UNL1       -0.2979
      2 H         136.2700  140.8094  162.8464 H       1  UNL1        0.1536
      3 C         139.2053  140.4147  159.3543 C.ar    1  UNL1        0.1531
      4 C         138.4097  141.0906  160.4314 C.ar    1  UNL1        0.0528
      5 C         138.0244  140.3325  161.6670 C.ar    1  UNL1        0.0525
      6 C         138.4347  138.8985  161.8256 C.ar    1  UNL1        0.0161
      7 C         139.2303  138.2226  160.7486 C.ar    1  UNL1        0.0189
      8 C         139.6156  138.9807  159.5129 C.ar    1  UNL1        0.0825
      9 N         140.4113  138.3047  158.4358 N.pl3   1  UNL1       -0.3004
     10 C         139.7169  137.7440  157.2303 C.3     1  UNL1        0.1231
     11 C         140.5125  137.0680  156.1532 C.3     1  UNL1        0.1636
     12 O         142.0026  136.9528  156.2817 O.3     1  UNL1       -0.3501
     13 C         142.6970  137.5135  157.4873 C.3     1  UNL1        0.1636
     14 C         141.9013  138.1895  158.5643 C.3     1  UNL1        0.1231
     15 C         139.3100  142.6432  158.0229 C.3     1  UNL1        0.2525
     16 O         139.5906  141.1728  158.1187 O.3     1  UNL1       -0.4701
     17 C         137.8938  141.9878  163.6653 C.ar    1  UNL1        0.1322
     18 C         138.8696  141.5037  164.6966 C.ar    1  UNL1        0.0344
     19 C         139.5347  142.4830  165.6178 C.ar    1  UNL1        0.0043
     20 C         139.2240  143.9464  165.5077 C.ar    1  UNL1        0.0208
     21 C         138.2482  144.4304  164.4765 C.ar    1  UNL1        0.1003
     22 N         137.5831  143.4511  163.5553 N.ar    1  UNL1       -0.2291
     23 C         140.5105  141.9990  166.6491 C.ar    1  UNL1        0.0008
     24 C         140.6648  142.7423  167.9427 C.ar    1  UNL1        0.0000
     25 C         141.6407  142.2583  168.9741 C.ar    1  UNL1        0.0007
     26 C         142.4620  141.0309  168.7117 C.ar    1  UNL1        0.0103
     27 C         142.3076  140.2875  167.4180 C.ar    1  UNL1        0.0684
     28 C         141.3318  140.7716  166.3868 C.ar    1  UNL1        0.0103
     29 C         143.1290  139.0601  167.1557 C.1     1  UNL1        0.1004
     30 N         143.9504  137.8327  166.8934 N.1     1  UNL1       -0.1908
@<TRIPOS>BOND
     1    15    16    1
     2    16     3    1
     3     3     4   ar
     4     4     5   ar
     5     5     1    1
     6     1    17    1
     7    17    18   ar
     8    18    19   ar
     9    19    23    1
    10    23    24   ar
    11    24    25   ar
    12    25    26   ar
    13    26    27   ar
    14    27    29    1
    15    29    30    3
    16    27    28   ar
    17    19    20   ar
    18    20    21   ar
    19    21    22   ar
    20     5     6   ar
    21     6     7   ar
    22     7     8   ar
    23     8     9    1
    24     9    10    1
    25    10    11    1
    26    11    12    1
    27    12    13    1
    28    13    14    1
    29     8     3   ar
    30    14     9    1
    31    22    17   ar
    32    28    23   ar
    33     1     2    1
@<TRIPOS>MOLECULE
*****
 30 33 0 0 0
SMALL
GASTEIGER

@<TRIPOS>ATOM
      1 N         144.5413  138.9580  163.2879 N.pl3   1  UNL1       -0.2979
      2 H         145.4497  138.5796  163.3174 H       1  UNL1        0.1536
      3 C         143.6424  141.9791  165.6994 C.ar    1  UNL1        0.1531
      4 C         144.1743  141.2134  164.5244 C.ar    1  UNL1        0.0528
      5 C         144.0094  139.7237  164.4631 C.ar    1  UNL1        0.0525
      6 C         143.3126  138.9998  165.5767 C.ar    1  UNL1        0.0161
      7 C         142.7807  139.7655  166.7517 C.ar    1  UNL1        0.0189
      8 C         142.9456  141.2551  166.8131 C.ar    1  UNL1        0.0825
      9 N         142.4136  142.0208  167.9882 N.pl3   1  UNL1       -0.3004
     10 C         141.0116  142.5535  167.9638 C.3     1  UNL1        0.1231
     11 C         140.4797  143.3192  169.1388 C.3     1  UNL1        0.1636
     12 O         141.3497  143.5522  170.3384 O.3     1  UNL1       -0.3501
     13 C         142.7517  143.0194  170.3628 C.3     1  UNL1        0.1636
     14 C         143.2836  142.2537  169.1877 C.3     1  UNL1        0.1231
     15 C         143.7595  144.2811  164.5008 C.3     1  UNL1        0.2525
     16 O         143.8073  143.4687  165.7608 O.3     1  UNL1       -0.4701
     17 C         143.6892  138.7690  162.0680 C.ar    1  UNL1        0.1322
     18 C         142.6064  139.7569  161.7491 C.ar    1  UNL1        0.0344
     19 C         141.7543  139.5678  160.5292 C.ar    1  UNL1        0.0043
     20 C         141.9850  138.3909  159.6282 C.ar    1  UNL1        0.0208
     21 C         143.0678  137.4031  159.9472 C.ar    1  UNL1        0.1003
     22 N         143.9199  137.5921  161.1671 N.ar    1  UNL1       -0.2291
     23 C         140.6715  140.5556  160.2102 C.ar    1  UNL1        0.0008
     24 C         140.2515  140.7744  158.7870 C.ar    1  UNL1        0.0000
     25 C         139.1686  141.7623  158.4680 C.ar    1  UNL1        0.0007
     26 C         138.5059  142.5313  159.5722 C.ar    1  UNL1        0.0103
     27 C         138.9260  142.3125  160.9955 C.ar    1  UNL1        0.0684
     28 C         140.0088  141.3247  161.3145 C.ar    1  UNL1        0.0103
     29 C         138.2633  143.0815  162.0998 C.1     1  UNL1        0.1004
     30 N         137.6006  143.8505  163.2041 N.1     1  UNL1       -0.1908
@<TRIPOS>BOND
     1    15    16    1
     2    16     3    1
     3     3     4   ar
     4     4     5   ar
     5     5     1    1
     6     1    17    1
     7    17    18   ar
     8    18    19   ar
     9    19    23    1
    10    23    24   ar
    11    24    25   ar
    12    25    26   ar
    13    26    27   ar
    14    27    29    1
    15    29    30    3
    16    27    28   ar
    17    19    20   ar
    18    20    21   ar
    19    21    22   ar
    20     5     6   ar
    21     6     7   ar
    22     7     8   ar
    23     8     9    1
    24     9    10    1
    25    10    11    1
    26    11    12    1
    27    12    13    1
    28    13    14    1
    29     8     3   ar
    30    14     9    1
    31    22    17   ar
    32    28    23   ar
    33     1     2    1
