@<TRIPOS>MOLECULE
*****
 35 38 0 0 0
SMALL
GASTEIGER

@<TRIPOS>ATOM
      1 N         140.8446  138.4259  161.3377 N.am    1  UNL1       -0.2783
      2 C         139.8543  138.6248  160.2286 C.3     1  UNL1        0.1107
      3 C         140.2820  138.4516  158.8014 C.3     1  UNL1        0.0942
      4 N         141.6999  138.0797  158.4831 N.3     1  UNL1       -0.2632
      5 C         142.6901  137.8809  159.5922 C.3     1  UNL1        0.1587
      6 C         142.2624  138.0540  161.0194 C.2     1  UNL1        0.2420
      7 O         143.2526  137.8552  162.1285 O.2     1  UNL1       -0.2734
      8 C         139.7164  140.2248  167.8754 C.ar    1  UNL1       -0.0065
      9 C         140.7266  141.1580  167.2767 C.ar    1  UNL1       -0.0033
     10 C         141.1543  140.9849  165.8494 C.ar    1  UNL1       -0.0048
     11 C         140.5718  139.8786  165.0208 C.ar    1  UNL1       -0.0245
     12 C         139.5616  138.9453  165.6195 C.ar    1  UNL1       -0.0263
     13 C         139.1339  139.1185  167.0468 C.ar    1  UNL1       -0.0075
     14 C         138.9789  137.8389  164.7909 C.3     1  UNL1        0.0277
     15 C         139.4066  137.6658  163.3637 C.3     1  UNL1        0.0248
     16 C         140.4169  138.5991  162.7650 C.3     1  UNL1        0.0801
     17 C         140.9995  139.7054  163.5935 C.3     1  UNL1        0.0458
     18 C         139.2887  140.3980  169.3026 C.3     1  UNL1        0.0991
     19 N         140.0915  141.2654  170.2262 N.3     1  UNL1       -0.2690
     20 C         140.6008  143.7911  169.8916 C.3     1  UNL1        0.0188
     21 C         139.7136  142.7038  170.4217 C.3     1  UNL1        0.0724
     22 C         141.2723  140.6945  170.9542 C.3     1  UNL1        0.0724
     23 C         142.5956  140.5736  170.2585 C.3     1  UNL1        0.0188
     24 C         142.1276  137.9065  157.0559 C.3     1  UNL1        0.0773
     25 C         141.3992  136.9431  156.1663 C.3     1  UNL1        0.0437
     26 C         141.8698  135.5232  156.0541 C.ar    1  UNL1       -0.0208
     27 C         141.2176  134.5921  155.0756 C.ar    1  UNL1       -0.0042
     28 C         141.6882  133.1722  154.9634 C.ar    1  UNL1       -0.0004
     29 C         142.8109  132.6835  155.8297 C.ar    1  UNL1        0.0038
     30 C         143.4632  133.6147  156.8083 C.ar    1  UNL1        0.0711
     31 C         142.9926  135.0346  156.9205 C.ar    1  UNL1       -0.0004
     32 C         144.5859  133.1260  157.6746 C.3     1  UNL1        0.4186
     33 F         145.7087  132.6373  158.5409 F       1  UNL1       -0.1659
     34 F         144.0807  133.9712  158.8061 F       1  UNL1       -0.1659
     35 F         145.0911  132.2808  156.5431 F       1  UNL1       -0.1659
@<TRIPOS>BOND
     1    20    21    1
     2    21    19    1
     3    19    22    1
     4    22    23    1
     5    19    18    1
     6    18     8    1
     7     8     9   ar
     8     9    10   ar
     9    10    11   ar
    10    11    12   ar
    11    12    13   ar
    12    12    14    1
    13    14    15    1
    14    15    16    1
    15    16     1    1
    16     1     2    1
    17     2     3    1
    18     3     4    1
    19     4    24    1
    20    24    25    1
    21    25    26    1
    22    26    27   ar
    23    27    28   ar
    24    28    29   ar
    25    29    30   ar
    26    30    32    1
    27    32    33    1
    28    32    34    1
    29    32    35    1
    30    30    31   ar
    31     4     5    1
    32     5     6    1
    33     6     7    2
    34    16    17    1
    35    13     8   ar
    36     6     1   am
    37    17    11    1
    38    31    26   ar
@<TRIPOS>MOLECULE
*****
 35 38 0 0 0
SMALL
GASTEIGER

@<TRIPOS>ATOM
      1 N         141.6518  138.5616  161.1389 N.am    1  UNL1       -0.2783
      2 C         140.3029  138.6939  160.4961 C.3     1  UNL1        0.1107
      3 C         140.1539  138.4925  159.0172 C.3     1  UNL1        0.0942
      4 N         141.3537  138.1587  158.1810 N.3     1  UNL1       -0.2632
      5 C         142.7025  138.0264  158.8238 C.3     1  UNL1        0.1587
      6 C         142.8515  138.2279  160.3028 C.2     1  UNL1        0.2420
      7 O         144.2003  138.0956  160.9456 O.2     1  UNL1       -0.2734
      8 C         142.6209  140.7165  167.5939 C.ar    1  UNL1       -0.0065
      9 C         142.8448  141.8641  166.6543 C.ar    1  UNL1       -0.0033
     10 C         142.6958  141.6626  165.1754 C.ar    1  UNL1       -0.0048
     11 C         142.3228  140.3136  164.6361 C.ar    1  UNL1       -0.0245
     12 C         142.0989  139.1660  165.5756 C.ar    1  UNL1       -0.0263
     13 C         142.2479  139.3675  167.0546 C.ar    1  UNL1       -0.0075
     14 C         141.7258  137.8169  165.0363 C.3     1  UNL1        0.0277
     15 C         141.5768  137.6154  163.5574 C.3     1  UNL1        0.0248
     16 C         141.8008  138.7631  162.6178 C.3     1  UNL1        0.0801
     17 C         142.1738  140.1121  163.1571 C.3     1  UNL1        0.0458
     18 C         142.7699  140.9180  169.0728 C.3     1  UNL1        0.0991
     19 N         141.6670  141.5658  169.8564 N.3     1  UNL1       -0.2690
     20 C         140.4711  143.8706  169.7692 C.3     1  UNL1        0.0188
     21 C         141.6833  143.0474  170.0902 C.3     1  UNL1        0.0724
     22 C         140.5478  140.7320  170.4062 C.3     1  UNL1        0.0724
     23 C         139.3967  140.3468  169.5251 C.3     1  UNL1        0.0188
     24 C         141.2047  137.9572  156.7021 C.3     1  UNL1        0.0773
     25 C         142.3894  137.5486  155.8777 C.3     1  UNL1        0.0437
     26 C         142.6481  136.0965  155.6045 C.ar    1  UNL1       -0.0208
     27 C         142.1237  135.4645  154.3493 C.ar    1  UNL1       -0.0042
     28 C         142.3823  134.0125  154.0761 C.ar    1  UNL1       -0.0004
     29 C         143.1653  133.1924  155.0581 C.ar    1  UNL1        0.0038
     30 C         143.6897  133.8244  156.3134 C.ar    1  UNL1        0.0711
     31 C         143.4311  135.2765  156.5866 C.ar    1  UNL1       -0.0004
     32 C         144.4727  133.0044  157.2954 C.3     1  UNL1        0.4186
     33 F         145.2557  132.1843  158.2774 F       1  UNL1       -0.1659
     34 F         145.0654  132.2166  156.1650 F       1  UNL1       -0.1659
     35 F         143.8800  133.7922  158.4259 F       1  UNL1       -0.1659
@<TRIPOS>BOND
     1    20    21    1
     2    21    19    1
     3    19    22    1
     4    22    23    1
     5    19    18    1
     6    18     8    1
     7     8     9   ar
     8     9    10   ar
     9    10    11   ar
    10    11    12   ar
    11    12    13   ar
    12    12    14    1
    13    14    15    1
    14    15    16    1
    15    16     1    1
    16     1     2    1
    17     2     3    1
    18     3     4    1
    19     4    24    1
    20    24    25    1
    21    25    26    1
    22    26    27   ar
    23    27    28   ar
    24    28    29   ar
    25    29    30   ar
    26    30    32    1
    27    32    33    1
    28    32    34    1
    29    32    35    1
    30    30    31   ar
    31     4     5    1
    32     5     6    1
    33     6     7    2
    34    16    17    1
    35    13     8   ar
    36     6     1   am
    37    17    11    1
    38    31    26   ar
@<TRIPOS>MOLECULE
*****
 35 38 0 0 0
SMALL
GASTEIGER

@<TRIPOS>ATOM
      1 N         140.9353  138.7610  160.6541 N.am    1  UNL1       -0.2783
      2 C         142.2256  138.1905  160.1442 C.3     1  UNL1        0.1107
      3 C         142.3486  137.7819  158.7061 C.3     1  UNL1        0.0942
      4 N         141.1813  137.9437  157.7780 N.3     1  UNL1       -0.2632
      5 C         139.8911  138.5141  158.2879 C.3     1  UNL1        0.1587
      6 C         139.7682  138.9228  159.7259 C.2     1  UNL1        0.2420
      7 O         138.4780  139.4932  160.2359 O.2     1  UNL1       -0.2734
      8 C         139.4057  139.7572  167.2811 C.ar    1  UNL1       -0.0065
      9 C         138.4909  138.7103  166.7180 C.ar    1  UNL1       -0.0033
     10 C         138.6139  138.3017  165.2800 C.ar    1  UNL1       -0.0048
     11 C         139.6517  138.9399  164.4051 C.ar    1  UNL1       -0.0245
     12 C         140.5665  139.9868  164.9681 C.ar    1  UNL1       -0.0263
     13 C         140.4435  140.3955  166.4061 C.ar    1  UNL1       -0.0075
     14 C         141.6043  140.6252  164.0931 C.3     1  UNL1        0.0277
     15 C         141.7273  140.2166  162.6551 C.3     1  UNL1        0.0248
     16 C         140.8124  139.1696  162.0921 C.3     1  UNL1        0.0801
     17 C         139.7746  138.5313  162.9670 C.3     1  UNL1        0.0458
     18 C         139.2828  140.1658  168.7191 C.3     1  UNL1        0.0991
     19 N         140.4192  140.8711  169.3982 N.3     1  UNL1       -0.2690
     20 C         139.9511  143.2372  170.3638 C.3     1  UNL1        0.0188
     21 C         140.5431  142.3626  169.2985 C.3     1  UNL1        0.0724
     22 C         141.4317  140.0847  170.1770 C.3     1  UNL1        0.0724
     23 C         142.3563  139.1410  169.4668 C.3     1  UNL1        0.0188
     24 C         141.3042  137.5351  156.3400 C.3     1  UNL1        0.0773
     25 C         142.5172  136.7854  155.8744 C.3     1  UNL1        0.0437
     26 C         142.5660  135.2908  155.9917 C.ar    1  UNL1       -0.0208
     27 C         141.5025  134.4527  155.3463 C.ar    1  UNL1       -0.0042
     28 C         141.5513  132.9581  155.4636 C.ar    1  UNL1       -0.0004
     29 C         142.6635  132.3016  156.2264 C.ar    1  UNL1        0.0038
     30 C         143.7270  133.1396  156.8719 C.ar    1  UNL1        0.0711
     31 C         143.6783  134.6342  156.7546 C.ar    1  UNL1       -0.0004
     32 C         144.8392  132.4830  157.6346 C.3     1  UNL1        0.4186
     33 F         145.9514  131.8265  158.3974 F       1  UNL1       -0.1659
     34 F         144.7235  133.5289  158.7036 F       1  UNL1       -0.1659
     35 F         144.9549  131.4372  156.5657 F       1  UNL1       -0.1659
@<TRIPOS>BOND
     1    20    21    1
     2    21    19    1
     3    19    22    1
     4    22    23    1
     5    19    18    1
     6    18     8    1
     7     8     9   ar
     8     9    10   ar
     9    10    11   ar
    10    11    12   ar
    11    12    13   ar
    12    12    14    1
    13    14    15    1
    14    15    16    1
    15    16     1    1
    16     1     2    1
    17     2     3    1
    18     3     4    1
    19     4    24    1
    20    24    25    1
    21    25    26    1
    22    26    27   ar
    23    27    28   ar
    24    28    29   ar
    25    29    30   ar
    26    30    32    1
    27    32    33    1
    28    32    34    1
    29    32    35    1
    30    30    31   ar
    31     4     5    1
    32     5     6    1
    33     6     7    2
    34    16    17    1
    35    13     8   ar
    36     6     1   am
    37    17    11    1
    38    31    26   ar
@<TRIPOS>MOLECULE
*****
 35 38 0 0 0
SMALL
GASTEIGER

@<TRIPOS>ATOM
      1 N         140.6842  138.4318  161.4150 N.am    1  UNL1       -0.2783
      2 C         142.0844  138.0046  161.0878 C.3     1  UNL1        0.1107
      3 C         142.4900  137.7947  159.6590 C.3     1  UNL1        0.0942
      4 N         141.4953  138.0120  158.5574 N.3     1  UNL1       -0.2632
      5 C         140.0952  138.4392  158.8846 C.3     1  UNL1        0.1587
      6 C         139.6896  138.6490  160.3134 C.2     1  UNL1        0.2420
      7 O         138.2895  139.0762  160.6405 O.2     1  UNL1       -0.2734
      8 C         139.6314  140.4184  167.9107 C.ar    1  UNL1       -0.0065
      9 C         140.6065  141.3558  167.2625 C.ar    1  UNL1       -0.0033
     10 C         141.0121  141.1460  165.8337 C.ar    1  UNL1       -0.0048
     11 C         140.4426  139.9987  165.0531 C.ar    1  UNL1       -0.0245
     12 C         139.4674  139.0613  165.7014 C.ar    1  UNL1       -0.0263
     13 C         139.0618  139.2712  167.1302 C.ar    1  UNL1       -0.0075
     14 C         138.8978  137.9140  164.9208 C.3     1  UNL1        0.0277
     15 C         139.3033  137.7041  163.4920 C.3     1  UNL1        0.0248
     16 C         140.2786  138.6416  162.8438 C.3     1  UNL1        0.0801
     17 C         140.8481  139.7889  163.6243 C.3     1  UNL1        0.0458
     18 C         139.2258  140.6283  169.3395 C.3     1  UNL1        0.0991
     19 N         140.1813  141.2651  170.3046 N.3     1  UNL1       -0.2690
     20 C         142.7567  140.9243  170.3456 C.3     1  UNL1        0.0188
     21 C         141.3837  140.5053  170.7811 C.3     1  UNL1        0.0724
     22 C         139.9345  142.6616  170.7933 C.3     1  UNL1        0.0724
     23 C         140.3484  143.8340  169.9541 C.3     1  UNL1        0.0188
     24 C         141.9009  137.8022  157.1286 C.3     1  UNL1        0.0773
     25 C         142.9749  136.8106  156.7917 C.3     1  UNL1        0.0437
     26 C         142.6817  135.6772  155.8538 C.ar    1  UNL1       -0.0208
     27 C         142.3978  135.9550  154.4074 C.ar    1  UNL1       -0.0042
     28 C         142.1046  134.8216  153.4696 C.ar    1  UNL1       -0.0004
     29 C         142.0955  133.4105  153.9781 C.ar    1  UNL1        0.0038
     30 C         142.3795  133.1327  155.4246 C.ar    1  UNL1        0.0711
     31 C         142.6726  134.2661  156.3625 C.ar    1  UNL1       -0.0004
     32 C         142.3703  131.7216  155.9332 C.3     1  UNL1        0.4186
     33 F         142.3611  130.3105  156.4417 F       1  UNL1       -0.1659
     34 F         142.9691  132.1844  157.2282 F       1  UNL1       -0.1659
     35 F         141.7715  131.2588  154.6381 F       1  UNL1       -0.1659
@<TRIPOS>BOND
     1    20    21    1
     2    21    19    1
     3    19    22    1
     4    22    23    1
     5    19    18    1
     6    18     8    1
     7     8     9   ar
     8     9    10   ar
     9    10    11   ar
    10    11    12   ar
    11    12    13   ar
    12    12    14    1
    13    14    15    1
    14    15    16    1
    15    16     1    1
    16     1     2    1
    17     2     3    1
    18     3     4    1
    19     4    24    1
    20    24    25    1
    21    25    26    1
    22    26    27   ar
    23    27    28   ar
    24    28    29   ar
    25    29    30   ar
    26    30    32    1
    27    32    33    1
    28    32    34    1
    29    32    35    1
    30    30    31   ar
    31     4     5    1
    32     5     6    1
    33     6     7    2
    34    16    17    1
    35    13     8   ar
    36     6     1   am
    37    17    11    1
    38    31    26   ar
@<TRIPOS>MOLECULE
*****
 35 38 0 0 0
SMALL
GASTEIGER

@<TRIPOS>ATOM
      1 N         141.1349  138.5083  158.9076 N.am    1  UNL1       -0.2783
      2 C         140.0205  138.1008  157.9899 C.3     1  UNL1        0.1107
      3 C         140.3314  137.5742  156.6202 C.3     1  UNL1        0.0942
      4 N         141.7567  137.4551  156.1682 N.3     1  UNL1       -0.2632
      5 C         142.8711  137.8626  157.0858 C.3     1  UNL1        0.1587
      6 C         142.5602  138.3892  158.4555 C.2     1  UNL1        0.2420
      7 O         143.6745  138.7967  159.3731 O.2     1  UNL1       -0.2734
      8 C         139.5335  139.6656  165.4913 C.ar    1  UNL1       -0.0065
      9 C         139.4866  138.1899  165.2267 C.ar    1  UNL1       -0.0033
     10 C         139.7975  137.6633  163.8570 C.ar    1  UNL1       -0.0048
     11 C         140.1553  138.6124  162.7520 C.ar    1  UNL1       -0.0245
     12 C         140.2022  140.0881  163.0166 C.ar    1  UNL1       -0.0263
     13 C         139.8913  140.6147  164.3863 C.ar    1  UNL1       -0.0075
     14 C         140.5600  141.0373  161.9115 C.3     1  UNL1        0.0277
     15 C         140.8709  140.5107  160.5419 C.3     1  UNL1        0.0248
     16 C         140.8240  139.0349  160.2773 C.3     1  UNL1        0.0801
     17 C         140.4662  138.0858  161.3823 C.3     1  UNL1        0.0458
     18 C         139.2226  140.1922  166.8610 C.3     1  UNL1        0.0991
     19 N         140.3135  140.7869  167.7014 N.3     1  UNL1       -0.2690
     20 C         140.5076  143.0768  168.9134 C.3     1  UNL1        0.0188
     21 C         140.5757  142.2631  167.6551 C.3     1  UNL1        0.0724
     22 C         141.1423  139.9054  168.5881 C.3     1  UNL1        0.0724
     23 C         142.6393  139.9577  168.5095 C.3     1  UNL1        0.0188
     24 C         142.0676  136.9285  154.7985 C.3     1  UNL1        0.0773
     25 C         141.4806  135.6246  154.3452 C.3     1  UNL1        0.0437
     26 C         142.2382  134.3473  154.5563 C.ar    1  UNL1       -0.0208
     27 C         142.1551  133.2490  153.5381 C.ar    1  UNL1       -0.0042
     28 C         142.9127  131.9717  153.7492 C.ar    1  UNL1       -0.0004
     29 C         143.7534  131.7927  154.9786 C.ar    1  UNL1        0.0038
     30 C         143.8365  132.8911  155.9968 C.ar    1  UNL1        0.0711
     31 C         143.0789  134.1684  155.7857 C.ar    1  UNL1       -0.0004
     32 C         144.6771  132.7121  157.2261 C.3     1  UNL1        0.4186
     33 F         145.5177  132.5331  158.4554 F       1  UNL1       -0.1659
     34 F         143.7368  133.5905  157.9970 F       1  UNL1       -0.1659
     35 F         145.6174  131.8338  156.4552 F       1  UNL1       -0.1659
@<TRIPOS>BOND
     1    20    21    1
     2    21    19    1
     3    19    22    1
     4    22    23    1
     5    19    18    1
     6    18     8    1
     7     8     9   ar
     8     9    10   ar
     9    10    11   ar
    10    11    12   ar
    11    12    13   ar
    12    12    14    1
    13    14    15    1
    14    15    16    1
    15    16     1    1
    16     1     2    1
    17     2     3    1
    18     3     4    1
    19     4    24    1
    20    24    25    1
    21    25    26    1
    22    26    27   ar
    23    27    28   ar
    24    28    29   ar
    25    29    30   ar
    26    30    32    1
    27    32    33    1
    28    32    34    1
    29    32    35    1
    30    30    31   ar
    31     4     5    1
    32     5     6    1
    33     6     7    2
    34    16    17    1
    35    13     8   ar
    36     6     1   am
    37    17    11    1
    38    31    26   ar
@<TRIPOS>MOLECULE
*****
 35 38 0 0 0
SMALL
GASTEIGER

@<TRIPOS>ATOM
      1 N         141.1723  139.4938  160.7554 N.am    1  UNL1       -0.2783
      2 C         142.2254  140.1502  159.9126 C.3     1  UNL1        0.1107
      3 C         142.2741  139.8900  158.4361 C.3     1  UNL1        0.0942
      4 N         141.2697  138.9736  157.8025 N.3     1  UNL1       -0.2632
      5 C         140.2167  138.3173  158.6453 C.3     1  UNL1        0.1587
      6 C         140.1680  138.5774  160.1218 C.2     1  UNL1        0.2420
      7 O         139.1150  137.9211  160.9646 O.2     1  UNL1       -0.2734
      8 C         141.9516  139.8524  167.5755 C.ar    1  UNL1       -0.0065
      9 C         142.9744  138.9103  167.0133 C.ar    1  UNL1       -0.0033
     10 C         143.0231  138.6502  165.5368 C.ar    1  UNL1       -0.0048
     11 C         142.0490  139.3321  164.6226 C.ar    1  UNL1       -0.0245
     12 C         141.0261  140.2742  165.1848 C.ar    1  UNL1       -0.0263
     13 C         140.9774  140.5344  166.6613 C.ar    1  UNL1       -0.0075
     14 C         140.0519  140.9563  164.2705 C.3     1  UNL1        0.0277
     15 C         140.1006  140.6962  162.7941 C.3     1  UNL1        0.0248
     16 C         141.1236  139.7540  162.2319 C.3     1  UNL1        0.0801
     17 C         142.0977  139.0720  163.1461 C.3     1  UNL1        0.0458
     18 C         141.9028  140.1125  169.0520 C.3     1  UNL1        0.0991
     19 N         141.4348  141.4424  169.5642 N.3     1  UNL1       -0.2690
     20 C         143.8540  142.3693  169.7602 C.3     1  UNL1        0.0188
     21 C         142.3809  142.6057  169.6047 C.3     1  UNL1        0.0724
     22 C         140.0207  141.6090  170.0360 C.3     1  UNL1        0.0724
     23 C         139.0466  140.4764  169.9007 C.3     1  UNL1        0.0188
     24 C         141.3184  138.7134  156.3260 C.3     1  UNL1        0.0773
     25 C         140.5962  137.5324  155.7483 C.3     1  UNL1        0.0437
     26 C         141.3516  136.2791  155.4187 C.ar    1  UNL1       -0.0208
     27 C         141.1869  135.6359  154.0737 C.ar    1  UNL1       -0.0042
     28 C         141.9423  134.3826  153.7442 C.ar    1  UNL1       -0.0004
     29 C         142.8624  133.7725  154.7596 C.ar    1  UNL1        0.0038
     30 C         143.0272  134.4157  156.1047 C.ar    1  UNL1        0.0711
     31 C         142.2718  135.6690  156.4343 C.ar    1  UNL1       -0.0004
     32 C         143.9473  133.8057  157.1202 C.3     1  UNL1        0.4186
     33 F         144.8674  133.1956  158.1356 F       1  UNL1       -0.1659
     34 F         144.5404  132.9299  156.0566 F       1  UNL1       -0.1659
     35 F         143.3542  134.6814  158.1837 F       1  UNL1       -0.1659
@<TRIPOS>BOND
     1    20    21    1
     2    21    19    1
     3    19    22    1
     4    22    23    1
     5    19    18    1
     6    18     8    1
     7     8     9   ar
     8     9    10   ar
     9    10    11   ar
    10    11    12   ar
    11    12    13   ar
    12    12    14    1
    13    14    15    1
    14    15    16    1
    15    16     1    1
    16     1     2    1
    17     2     3    1
    18     3     4    1
    19     4    24    1
    20    24    25    1
    21    25    26    1
    22    26    27   ar
    23    27    28   ar
    24    28    29   ar
    25    29    30   ar
    26    30    32    1
    27    32    33    1
    28    32    34    1
    29    32    35    1
    30    30    31   ar
    31     4     5    1
    32     5     6    1
    33     6     7    2
    34    16    17    1
    35    13     8   ar
    36     6     1   am
    37    17    11    1
    38    31    26   ar
@<TRIPOS>MOLECULE
*****
 35 38 0 0 0
SMALL
GASTEIGER

@<TRIPOS>ATOM
      1 N         140.2299  144.2909  160.3326 N.am    1  UNL1       -0.2783
      2 C         141.2159  145.3034  159.8300 C.3     1  UNL1        0.1107
      3 C         141.2868  145.6184  158.3651 C.3     1  UNL1        0.0942
      4 N         140.3716  144.9208  157.4029 N.3     1  UNL1       -0.2632
      5 C         139.3857  143.9083  157.9055 C.3     1  UNL1        0.1587
      6 C         139.3148  143.5933  159.3703 C.2     1  UNL1        0.2420
      7 O         138.3289  142.5808  159.8729 O.2     1  UNL1       -0.2734
      8 C         140.5655  141.7704  166.7188 C.ar    1  UNL1       -0.0065
      9 C         141.2555  140.8248  165.7809 C.ar    1  UNL1       -0.0033
     10 C         141.3263  141.1397  164.3160 C.ar    1  UNL1       -0.0048
     11 C         140.7073  142.4003  163.7891 C.ar    1  UNL1       -0.0245
     12 C         140.0173  143.3459  164.7271 C.ar    1  UNL1       -0.0263
     13 C         139.9465  143.0309  166.1919 C.ar    1  UNL1       -0.0075
     14 C         139.3982  144.6066  164.2002 C.3     1  UNL1        0.0277
     15 C         139.4691  144.9216  162.7354 C.3     1  UNL1        0.0248
     16 C         140.1591  143.9759  161.7974 C.3     1  UNL1        0.0801
     17 C         140.7781  142.7153  162.3243 C.3     1  UNL1        0.0458
     18 C         140.4947  141.4554  168.1837 C.3     1  UNL1        0.0991
     19 N         141.6608  141.7653  169.0747 N.3     1  UNL1       -0.2690
     20 C         142.4094  139.2897  169.3219 C.3     1  UNL1        0.0188
     21 C         142.7480  140.7500  169.2675 C.3     1  UNL1        0.0724
     22 C         141.7398  143.0905  169.7730 C.3     1  UNL1        0.0724
     23 C         140.5090  143.9350  169.9207 C.3     1  UNL1        0.0188
     24 C         140.4425  145.2358  155.9380 C.3     1  UNL1        0.0773
     25 C         139.3673  146.0612  155.2955 C.3     1  UNL1        0.0437
     26 C         139.7182  147.3504  154.6137 C.ar    1  UNL1       -0.0208
     27 C         140.6651  147.3501  153.4504 C.ar    1  UNL1       -0.0042
     28 C         141.0160  148.6393  152.7685 C.ar    1  UNL1       -0.0004
     29 C         140.4200  149.9288  153.2500 C.ar    1  UNL1        0.0038
     30 C         139.4730  149.9292  154.4134 C.ar    1  UNL1        0.0711
     31 C         139.1222  148.6400  155.0953 C.ar    1  UNL1       -0.0004
     32 C         138.8770  151.2187  154.8950 C.3     1  UNL1        0.4186
     33 F         138.2810  152.5082  155.3765 F       1  UNL1       -0.1659
     34 F         138.6577  151.6477  153.4745 F       1  UNL1       -0.1659
     35 F         139.0964  150.7896  156.3154 F       1  UNL1       -0.1659
@<TRIPOS>BOND
     1    20    21    1
     2    21    19    1
     3    19    22    1
     4    22    23    1
     5    19    18    1
     6    18     8    1
     7     8     9   ar
     8     9    10   ar
     9    10    11   ar
    10    11    12   ar
    11    12    13   ar
    12    12    14    1
    13    14    15    1
    14    15    16    1
    15    16     1    1
    16     1     2    1
    17     2     3    1
    18     3     4    1
    19     4    24    1
    20    24    25    1
    21    25    26    1
    22    26    27   ar
    23    27    28   ar
    24    28    29   ar
    25    29    30   ar
    26    30    32    1
    27    32    33    1
    28    32    34    1
    29    32    35    1
    30    30    31   ar
    31     4     5    1
    32     5     6    1
    33     6     7    2
    34    16    17    1
    35    13     8   ar
    36     6     1   am
    37    17    11    1
    38    31    26   ar
@<TRIPOS>MOLECULE
*****
 35 38 0 0 0
SMALL
GASTEIGER

@<TRIPOS>ATOM
      1 N         140.8211  139.5627  160.8067 N.am    1  UNL1       -0.2783
      2 C         140.1698  140.4945  159.8281 C.3     1  UNL1        0.1107
      3 C         140.5935  140.4867  158.3891 C.3     1  UNL1        0.0942
      4 N         141.6683  139.5470  157.9289 N.3     1  UNL1       -0.2632
      5 C         142.3195  138.6152  158.9075 C.3     1  UNL1        0.1587
      6 C         141.8958  138.6231  160.3464 C.2     1  UNL1        0.2420
      7 O         142.5470  137.6913  161.3250 O.2     1  UNL1       -0.2734
      8 C         139.9044  140.3890  167.5689 C.ar    1  UNL1       -0.0065
      9 C         141.1059  141.1760  167.1365 C.ar    1  UNL1       -0.0033
     10 C         141.5295  141.1681  165.6975 C.ar    1  UNL1       -0.0048
     11 C         140.7517  140.3733  164.6910 C.ar    1  UNL1       -0.0245
     12 C         139.5502  139.5863  165.1234 C.ar    1  UNL1       -0.0263
     13 C         139.1266  139.5941  166.5624 C.ar    1  UNL1       -0.0075
     14 C         138.7723  138.7914  164.1169 C.3     1  UNL1        0.0277
     15 C         139.1959  138.7835  162.6780 C.3     1  UNL1        0.0248
     16 C         140.3974  139.5706  162.2456 C.3     1  UNL1        0.0801
     17 C         141.1753  140.3654  163.2521 C.3     1  UNL1        0.0458
     18 C         139.4808  140.3969  169.0078 C.3     1  UNL1        0.0991
     19 N         140.2845  141.1552  170.0221 N.3     1  UNL1       -0.2690
     20 C         142.0504  139.2503  170.0771 C.3     1  UNL1        0.0188
     21 C         141.4977  140.5260  170.6403 C.3     1  UNL1        0.0724
     22 C         139.8750  142.5428  170.4183 C.3     1  UNL1        0.0724
     23 C         140.4474  143.7280  169.6988 C.3     1  UNL1        0.0188
     24 C         142.0919  139.5391  156.4900 C.3     1  UNL1        0.0773
     25 C         143.4300  138.9810  156.1051 C.3     1  UNL1        0.0437
     26 C         144.5226  139.9008  155.6467 C.ar    1  UNL1       -0.0208
     27 C         144.9285  139.9222  154.2028 C.ar    1  UNL1       -0.0042
     28 C         146.0211  140.8420  153.7444 C.ar    1  UNL1       -0.0004
     29 C         146.7078  141.7405  154.7298 C.ar    1  UNL1        0.0038
     30 C         146.3019  141.7192  156.1738 C.ar    1  UNL1        0.0711
     31 C         145.2093  140.7993  156.6322 C.ar    1  UNL1       -0.0004
     32 C         146.9886  142.6177  157.1592 C.3     1  UNL1        0.4186
     33 F         147.6753  143.5161  158.1446 F       1  UNL1       -0.1659
     34 F         145.7006  142.7775  157.9111 F       1  UNL1       -0.1659
     35 F         148.2767  142.4579  156.4073 F       1  UNL1       -0.1659
@<TRIPOS>BOND
     1    20    21    1
     2    21    19    1
     3    19    22    1
     4    22    23    1
     5    19    18    1
     6    18     8    1
     7     8     9   ar
     8     9    10   ar
     9    10    11   ar
    10    11    12   ar
    11    12    13   ar
    12    12    14    1
    13    14    15    1
    14    15    16    1
    15    16     1    1
    16     1     2    1
    17     2     3    1
    18     3     4    1
    19     4    24    1
    20    24    25    1
    21    25    26    1
    22    26    27   ar
    23    27    28   ar
    24    28    29   ar
    25    29    30   ar
    26    30    32    1
    27    32    33    1
    28    32    34    1
    29    32    35    1
    30    30    31   ar
    31     4     5    1
    32     5     6    1
    33     6     7    2
    34    16    17    1
    35    13     8   ar
    36     6     1   am
    37    17    11    1
    38    31    26   ar
@<TRIPOS>MOLECULE
*****
 35 38 0 0 0
SMALL
GASTEIGER

@<TRIPOS>ATOM
      1 N         141.5510  139.8367  160.8094 N.am    1  UNL1       -0.2783
      2 C         140.0961  140.1942  160.7355 C.3     1  UNL1        0.1107
      3 C         139.2377  140.1012  161.9621 C.3     1  UNL1        0.0942
      4 N         139.8343  139.6507  163.2626 N.3     1  UNL1       -0.2632
      5 C         141.2892  139.2932  163.3364 C.3     1  UNL1        0.1587
      6 C         142.1475  139.3862  162.1098 C.2     1  UNL1        0.2420
      7 O         143.6024  139.0287  162.1836 O.2     1  UNL1       -0.2734
      8 C         145.9380  141.3548  155.7399 C.ar    1  UNL1       -0.0065
      9 C         146.0333  142.4080  156.8036 C.ar    1  UNL1       -0.0033
     10 C         145.1750  142.3151  158.0302 C.ar    1  UNL1       -0.0048
     11 C         144.2213  141.1688  158.1932 C.ar    1  UNL1       -0.0245
     12 C         144.1260  140.1156  157.1295 C.ar    1  UNL1       -0.0263
     13 C         144.9843  140.2086  155.9028 C.ar    1  UNL1       -0.0075
     14 C         143.1723  138.9693  157.2924 C.3     1  UNL1        0.0277
     15 C         142.3139  138.8763  158.5190 C.3     1  UNL1        0.0248
     16 C         142.4093  139.9296  159.5827 C.3     1  UNL1        0.0801
     17 C         143.3630  141.0759  159.4198 C.3     1  UNL1        0.0458
     18 C         146.7963  141.4478  154.5133 C.3     1  UNL1        0.0991
     19 N         148.0894  142.2065  154.5585 N.3     1  UNL1       -0.2690
     20 C         150.6017  141.5724  154.7495 C.3     1  UNL1        0.0188
     21 C         149.2390  141.6820  155.3668 C.3     1  UNL1        0.0724
     22 C         148.2331  143.4899  153.7953 C.3     1  UNL1        0.0724
     23 C         147.0850  144.4526  153.7240 C.3     1  UNL1        0.0188
     24 C         138.9760  139.5577  164.4893 C.3     1  UNL1        0.0773
     25 C         138.8806  140.7238  165.4280 C.3     1  UNL1        0.0437
     26 C         139.0307  142.1217  164.9052 C.ar    1  UNL1       -0.0208
     27 C         137.8161  142.9124  164.5186 C.ar    1  UNL1       -0.0042
     28 C         137.9662  144.3103  163.9958 C.ar    1  UNL1       -0.0004
     29 C         139.3310  144.9175  163.8595 C.ar    1  UNL1        0.0038
     30 C         140.5457  144.1269  164.2461 C.ar    1  UNL1        0.0711
     31 C         140.3956  142.7290  164.7690 C.ar    1  UNL1       -0.0004
     32 C         141.9105  144.7341  164.1099 C.3     1  UNL1        0.4186
     33 F         143.2752  145.3414  163.9737 F       1  UNL1       -0.1659
     34 F         142.4816  143.6425  164.9655 F       1  UNL1       -0.1659
     35 F         141.3393  145.8258  163.2544 F       1  UNL1       -0.1659
@<TRIPOS>BOND
     1    20    21    1
     2    21    19    1
     3    19    22    1
     4    22    23    1
     5    19    18    1
     6    18     8    1
     7     8     9   ar
     8     9    10   ar
     9    10    11   ar
    10    11    12   ar
    11    12    13   ar
    12    12    14    1
    13    14    15    1
    14    15    16    1
    15    16     1    1
    16     1     2    1
    17     2     3    1
    18     3     4    1
    19     4    24    1
    20    24    25    1
    21    25    26    1
    22    26    27   ar
    23    27    28   ar
    24    28    29   ar
    25    29    30   ar
    26    30    32    1
    27    32    33    1
    28    32    34    1
    29    32    35    1
    30    30    31   ar
    31     4     5    1
    32     5     6    1
    33     6     7    2
    34    16    17    1
    35    13     8   ar
    36     6     1   am
    37    17    11    1
    38    31    26   ar
