@<TRIPOS>MOLECULE
*****
 26 29 0 0 0
SMALL
GASTEIGER

@<TRIPOS>ATOM
      1 C         138.5467  140.3694  165.0917 C.ar    1  UNL1        0.1694
      2 N         138.0285  140.3282  163.6847 N.ar    1  UNL1       -0.1474
      3 N         138.7379  141.3903  162.8981 N.ar    1  UNL1       -0.2084
      4 C         138.6364  141.8122  161.4622 C.ar    1  UNL1        0.1004
      5 C         139.4915  142.9318  160.9472 C.ar    1  UNL1        0.0268
      6 C         140.4482  143.6295  161.8682 C.ar    1  UNL1        0.0609
      7 N         140.5497  143.2075  163.3040 N.ar    1  UNL1       -0.2299
      8 C         139.6946  142.0879  163.8190 C.ar    1  UNL1        0.1838
      9 C         139.5764  141.4570  165.1747 C.ar    1  UNL1        0.1787
     10 C         141.3033  144.7491  161.3532 C.3     1  UNL1        0.0629
     11 C         141.2018  145.1711  159.9174 C.3     1  UNL1        0.0787
     12 N         140.2452  144.4734  158.9965 N.3     1  UNL1       -0.2673
     13 C         140.1437  144.8954  157.5606 C.3     1  UNL1        0.0899
     14 C         139.3900  143.3538  159.5114 C.3     1  UNL1        0.1019
     15 C         138.2132  137.9894  166.0786 C.3     1  UNL1        0.1097
     16 N         138.1116  139.4794  166.2180 N.pl3   1  UNL1       -0.3142
     17 H         137.7593  139.8732  167.0487 H       1  UNL1        0.1483
     18 S         140.3518  141.8455  166.3986 S.O2    1  UNL1        0.0331
     19 O         139.7321  143.2110  166.3577 O.2     1  UNL1       -0.1641
     20 O         140.9714  140.4801  166.4394 O.2     1  UNL1       -0.1641
     21 C         141.1272  142.2340  167.6224 C.ar    1  UNL1        0.1105
     22 C         140.4610  143.0154  168.7159 C.ar    1  UNL1        0.0187
     23 C         141.2365  143.4038  169.9396 C.ar    1  UNL1        0.0013
     24 C         142.6782  143.0108  170.0701 C.ar    1  UNL1        0.0001
     25 C         143.3444  142.2293  168.9767 C.ar    1  UNL1        0.0013
     26 C         142.5689  141.8410  167.7529 C.ar    1  UNL1        0.0187
@<TRIPOS>BOND
     1    15    16    1
     2    16     1    1
     3     1     2   ar
     4     2     3   ar
     5     3     4   ar
     6     4     5   ar
     7     5     6   ar
     8     6     7   ar
     9     7     8   ar
    10     8     9   ar
    11     9    18    1
    12    18    19    2
    13    18    20    2
    14    18    21    1
    15    21    22   ar
    16    22    23   ar
    17    23    24   ar
    18    24    25   ar
    19    25    26   ar
    20     6    10    1
    21    10    11    1
    22    11    12    1
    23    12    13    1
    24    12    14    1
    25     9     1   ar
    26    26    21   ar
    27     8     3   ar
    28    14     5    1
    29    16    17    1
@<TRIPOS>MOLECULE
*****
 26 29 0 0 0
SMALL
GASTEIGER

@<TRIPOS>ATOM
      1 C         138.8846  138.8906  166.1241 C.ar    1  UNL1        0.1694
      2 N         138.6312  138.1995  164.8172 N.ar    1  UNL1       -0.1474
      3 N         139.7295  138.5819  163.8699 N.ar    1  UNL1       -0.2084
      4 C         140.0012  138.2054  162.4436 C.ar    1  UNL1        0.1004
      5 C         141.2052  138.7565  161.7387 C.ar    1  UNL1        0.0268
      6 C         142.1375  139.6840  162.4602 C.ar    1  UNL1        0.0609
      7 N         141.8657  140.0605  163.8865 N.ar    1  UNL1       -0.2299
      8 C         140.6618  139.5095  164.5914 C.ar    1  UNL1        0.1838
      9 C         140.1395  139.7003  165.9845 C.ar    1  UNL1        0.1787
     10 C         143.3414  140.2351  161.7554 C.3     1  UNL1        0.0629
     11 C         143.6131  139.8586  160.3291 C.3     1  UNL1        0.0787
     12 N         142.6809  138.9310  159.6076 N.3     1  UNL1       -0.2673
     13 C         142.9526  138.5545  158.1812 C.3     1  UNL1        0.0899
     14 C         141.4769  138.3800  160.3124 C.3     1  UNL1        0.1019
     15 C         137.0126  137.6964  167.4730 C.3     1  UNL1        0.1097
     16 N         138.0326  138.7899  167.3545 N.pl3   1  UNL1       -0.3142
     17 H         138.1428  139.4414  168.0843 H       1  UNL1        0.1483
     18 S         140.7629  140.5513  167.0509 S.O2    1  UNL1        0.0331
     19 O         141.8036  139.4965  167.2844 O.2     1  UNL1       -0.1641
     20 O         139.7223  141.6061  166.8174 O.2     1  UNL1       -0.1641
     21 C         141.3862  141.4024  168.1173 C.ar    1  UNL1        0.1105
     22 C         140.5825  142.4806  168.7816 C.ar    1  UNL1        0.0187
     23 C         141.2058  143.3317  169.8479 C.ar    1  UNL1        0.0013
     24 C         142.6330  143.1045  170.2500 C.ar    1  UNL1        0.0001
     25 C         143.4367  142.0263  169.5857 C.ar    1  UNL1        0.0013
     26 C         142.8134  141.1753  168.5193 C.ar    1  UNL1        0.0187
@<TRIPOS>BOND
     1    15    16    1
     2    16     1    1
     3     1     2   ar
     4     2     3   ar
     5     3     4   ar
     6     4     5   ar
     7     5     6   ar
     8     6     7   ar
     9     7     8   ar
    10     8     9   ar
    11     9    18    1
    12    18    19    2
    13    18    20    2
    14    18    21    1
    15    21    22   ar
    16    22    23   ar
    17    23    24   ar
    18    24    25   ar
    19    25    26   ar
    20     6    10    1
    21    10    11    1
    22    11    12    1
    23    12    13    1
    24    12    14    1
    25     9     1   ar
    26    26    21   ar
    27     8     3   ar
    28    14     5    1
    29    16    17    1
@<TRIPOS>MOLECULE
*****
 26 29 0 0 0
SMALL
GASTEIGER

@<TRIPOS>ATOM
      1 C         140.4048  145.2402  162.3663 C.ar    1  UNL1        0.1694
      2 N         139.6879  146.0635  161.3376 N.ar    1  UNL1       -0.1474
      3 N         140.2809  145.7485  159.9963 N.ar    1  UNL1       -0.2084
      4 C         139.9743  146.2571  158.6189 C.ar    1  UNL1        0.1004
      5 C         140.7511  145.7477  157.4411 C.ar    1  UNL1        0.0268
      6 C         141.8345  144.7297  157.6408 C.ar    1  UNL1        0.0609
      7 N         142.1411  144.2210  159.0183 N.ar    1  UNL1       -0.2299
      8 C         141.3643  144.7304  160.1960 C.ar    1  UNL1        0.1838
      9 C         141.4408  144.4163  161.6607 C.ar    1  UNL1        0.1787
     10 C         142.6113  144.2203  156.4631 C.3     1  UNL1        0.0629
     11 C         142.3047  144.7289  155.0857 C.3     1  UNL1        0.0787
     12 N         141.2213  145.7469  154.8860 N.3     1  UNL1       -0.2673
     13 C         140.9147  146.2555  153.5085 C.3     1  UNL1        0.0899
     14 C         140.4445  146.2563  156.0637 C.3     1  UNL1        0.1019
     15 C         138.8624  144.6449  164.3704 C.3     1  UNL1        0.1097
     16 N         140.1333  145.2406  163.8415 N.pl3   1  UNL1       -0.3142
     17 H         140.7893  145.6319  164.4626 H       1  UNL1        0.1483
     18 S         142.3873  143.4482  162.3065 S.O2    1  UNL1        0.0331
     19 O         143.5175  144.4113  162.0937 O.2     1  UNL1       -0.1641
     20 O         141.2572  142.4852  162.5193 O.2     1  UNL1       -0.1641
     21 C         143.3338  142.4801  162.9523 C.ar    1  UNL1        0.1105
     22 C         142.8016  141.2672  163.6563 C.ar    1  UNL1        0.0187
     23 C         143.7480  140.2992  164.3020 C.ar    1  UNL1        0.0013
     24 C         145.2268  140.5439  164.2437 C.ar    1  UNL1        0.0001
     25 C         145.7590  141.7568  163.5397 C.ar    1  UNL1        0.0013
     26 C         144.8125  142.7249  162.8940 C.ar    1  UNL1        0.0187
@<TRIPOS>BOND
     1    15    16    1
     2    16     1    1
     3     1     2   ar
     4     2     3   ar
     5     3     4   ar
     6     4     5   ar
     7     5     6   ar
     8     6     7   ar
     9     7     8   ar
    10     8     9   ar
    11     9    18    1
    12    18    19    2
    13    18    20    2
    14    18    21    1
    15    21    22   ar
    16    22    23   ar
    17    23    24   ar
    18    24    25   ar
    19    25    26   ar
    20     6    10    1
    21    10    11    1
    22    11    12    1
    23    12    13    1
    24    12    14    1
    25     9     1   ar
    26    26    21   ar
    27     8     3   ar
    28    14     5    1
    29    16    17    1
@<TRIPOS>MOLECULE
*****
 26 29 0 0 0
SMALL
GASTEIGER

@<TRIPOS>ATOM
      1 C         141.9213  139.5736  164.4671 C.ar    1  UNL1        0.1694
      2 N         142.1778  139.6791  162.9930 N.ar    1  UNL1       -0.1474
      3 N         141.6968  141.0237  162.5339 N.ar    1  UNL1       -0.2084
      4 C         141.6915  141.6812  161.1857 C.ar    1  UNL1        0.1004
      5 C         141.1325  143.0642  161.0278 C.ar    1  UNL1        0.0268
      6 C         140.5788  143.7897  162.2183 C.ar    1  UNL1        0.0609
      7 N         140.5841  143.1322  163.5665 N.ar    1  UNL1       -0.2299
      8 C         141.1431  141.7492  163.7243 C.ar    1  UNL1        0.1838
      9 C         141.2819  140.8530  164.9191 C.ar    1  UNL1        0.1787
     10 C         140.0198  145.1726  162.0605 C.3     1  UNL1        0.0629
     11 C         140.0145  145.8301  160.7123 C.3     1  UNL1        0.0787
     12 N         140.5683  145.1046  159.5219 N.3     1  UNL1       -0.2673
     13 C         140.5630  145.7622  158.1736 C.3     1  UNL1        0.0899
     14 C         141.1273  143.7217  159.6797 C.3     1  UNL1        0.1019
     15 C         143.4844  138.4085  166.1844 C.3     1  UNL1        0.1097
     16 N         142.2471  138.3955  165.3366 N.pl3   1  UNL1       -0.3142
     17 H         141.6488  137.6138  165.3508 H       1  UNL1        0.1483
     18 S         140.8559  141.1789  166.3199 S.O2    1  UNL1        0.0331
     19 O         142.0018  142.1388  166.4450 O.2     1  UNL1       -0.1641
     20 O         139.7100  140.2191  166.1948 O.2     1  UNL1       -0.1641
     21 C         140.4299  141.5049  167.7208 C.ar    1  UNL1        0.1105
     22 C         139.6862  140.4876  168.5344 C.ar    1  UNL1        0.0187
     23 C         139.2602  140.8135  169.9352 C.ar    1  UNL1        0.0013
     24 C         139.5779  142.1568  170.5224 C.ar    1  UNL1        0.0001
     25 C         140.3216  143.1741  169.7087 C.ar    1  UNL1        0.0013
     26 C         140.7476  142.8481  168.3079 C.ar    1  UNL1        0.0187
@<TRIPOS>BOND
     1    15    16    1
     2    16     1    1
     3     1     2   ar
     4     2     3   ar
     5     3     4   ar
     6     4     5   ar
     7     5     6   ar
     8     6     7   ar
     9     7     8   ar
    10     8     9   ar
    11     9    18    1
    12    18    19    2
    13    18    20    2
    14    18    21    1
    15    21    22   ar
    16    22    23   ar
    17    23    24   ar
    18    24    25   ar
    19    25    26   ar
    20     6    10    1
    21    10    11    1
    22    11    12    1
    23    12    13    1
    24    12    14    1
    25     9     1   ar
    26    26    21   ar
    27     8     3   ar
    28    14     5    1
    29    16    17    1
@<TRIPOS>MOLECULE
*****
 26 29 0 0 0
SMALL
GASTEIGER

@<TRIPOS>ATOM
      1 C         138.5536  144.1900  163.3680 C.ar    1  UNL1        0.1694
      2 N         138.8867  145.2861  162.3997 N.ar    1  UNL1       -0.1474
      3 N         139.6041  144.6727  161.2339 N.ar    1  UNL1       -0.2084
      4 C         140.1712  145.2668  159.9788 C.ar    1  UNL1        0.1004
      5 C         140.8486  144.3856  158.9714 C.ar    1  UNL1        0.0268
      6 C         140.9589  142.9104  159.2192 C.ar    1  UNL1        0.0609
      7 N         140.3917  142.3162  160.4744 N.ar    1  UNL1       -0.2299
      8 C         139.7144  143.1974  161.4817 C.ar    1  UNL1        0.1838
      9 C         139.0652  142.8991  162.8007 C.ar    1  UNL1        0.1787
     10 C         141.6362  142.0292  158.2119 C.3     1  UNL1        0.0629
     11 C         142.2033  142.6233  156.9568 C.3     1  UNL1        0.0787
     12 N         142.0930  144.0986  156.7089 N.3     1  UNL1       -0.2673
     13 C         142.6601  144.6927  155.4537 C.3     1  UNL1        0.0899
     14 C         141.4156  144.9797  157.7162 C.3     1  UNL1        0.1019
     15 C         138.5072  145.0592  165.8159 C.3     1  UNL1        0.1097
     16 N         137.8351  144.3558  164.6743 N.pl3   1  UNL1       -0.3142
     17 H         136.9224  144.0028  164.7823 H       1  UNL1        0.1483
     18 S         138.9480  141.5473  163.4400 S.O2    1  UNL1        0.0331
     19 O         137.4875  141.5129  163.0999 O.2     1  UNL1       -0.1641
     20 O         140.4086  141.5816  163.7801 O.2     1  UNL1       -0.1641
     21 C         138.8310  140.1954  164.0794 C.ar    1  UNL1        0.1105
     22 C         138.3427  140.0737  165.4924 C.ar    1  UNL1        0.0187
     23 C         138.2257  138.7218  166.1317 C.ar    1  UNL1        0.0013
     24 C         138.5971  137.4916  165.3579 C.ar    1  UNL1        0.0001
     25 C         139.0854  137.6133  163.9449 C.ar    1  UNL1        0.0013
     26 C         139.2024  138.9652  163.3056 C.ar    1  UNL1        0.0187
@<TRIPOS>BOND
     1    15    16    1
     2    16     1    1
     3     1     2   ar
     4     2     3   ar
     5     3     4   ar
     6     4     5   ar
     7     5     6   ar
     8     6     7   ar
     9     7     8   ar
    10     8     9   ar
    11     9    18    1
    12    18    19    2
    13    18    20    2
    14    18    21    1
    15    21    22   ar
    16    22    23   ar
    17    23    24   ar
    18    24    25   ar
    19    25    26   ar
    20     6    10    1
    21    10    11    1
    22    11    12    1
    23    12    13    1
    24    12    14    1
    25     9     1   ar
    26    26    21   ar
    27     8     3   ar
    28    14     5    1
    29    16    17    1
@<TRIPOS>MOLECULE
*****
 26 29 0 0 0
SMALL
GASTEIGER

@<TRIPOS>ATOM
      1 C         139.1694  140.4151  164.7170 C.ar    1  UNL1        0.1694
      2 N         139.1005  140.0959  163.2530 N.ar    1  UNL1       -0.1474
      3 N         140.3434  140.6282  162.6034 N.ar    1  UNL1       -0.2084
      4 C         140.8210  140.6063  161.1817 C.ar    1  UNL1        0.1004
      5 C         142.1358  141.2328  160.8224 C.ar    1  UNL1        0.0268
      6 C         142.9729  141.8810  161.8850 C.ar    1  UNL1        0.0609
      7 N         142.4952  141.9028  163.3068 N.ar    1  UNL1       -0.2299
      8 C         141.1805  141.2764  163.6659 C.ar    1  UNL1        0.1838
      9 C         140.4549  141.1447  164.9722 C.ar    1  UNL1        0.1787
     10 C         144.2877  142.5074  161.5258 C.3     1  UNL1        0.0629
     11 C         144.7653  142.4855  160.1041 C.3     1  UNL1        0.0787
     12 N         143.9282  141.8373  159.0415 N.3     1  UNL1       -0.2673
     13 C         144.4058  141.8155  157.6197 C.3     1  UNL1        0.0899
     14 C         142.6134  141.2109  159.4007 C.3     1  UNL1        0.1019
     15 C         138.1243  138.7004  166.3654 C.3     1  UNL1        0.1097
     16 N         138.1346  140.0661  165.7452 N.pl3   1  UNL1       -0.3142
     17 H         137.4621  140.7334  166.0130 H       1  UNL1        0.1483
     18 S         140.9313  141.6534  166.3005 S.O2    1  UNL1        0.0331
     19 O         139.9679  142.7992  166.2072 O.2     1  UNL1       -0.1641
     20 O         141.8948  140.5075  166.3937 O.2     1  UNL1       -0.1641
     21 C         141.4078  142.1620  167.6288 C.ar    1  UNL1        0.1105
     22 C         142.8175  141.9013  168.0700 C.ar    1  UNL1        0.0187
     23 C         143.2939  142.4098  169.3982 C.ar    1  UNL1        0.0013
     24 C         142.3605  143.1792  170.2854 C.ar    1  UNL1        0.0001
     25 C         140.9508  143.4399  169.8442 C.ar    1  UNL1        0.0013
     26 C         140.4744  142.9313  168.5159 C.ar    1  UNL1        0.0187
@<TRIPOS>BOND
     1    15    16    1
     2    16     1    1
     3     1     2   ar
     4     2     3   ar
     5     3     4   ar
     6     4     5   ar
     7     5     6   ar
     8     6     7   ar
     9     7     8   ar
    10     8     9   ar
    11     9    18    1
    12    18    19    2
    13    18    20    2
    14    18    21    1
    15    21    22   ar
    16    22    23   ar
    17    23    24   ar
    18    24    25   ar
    19    25    26   ar
    20     6    10    1
    21    10    11    1
    22    11    12    1
    23    12    13    1
    24    12    14    1
    25     9     1   ar
    26    26    21   ar
    27     8     3   ar
    28    14     5    1
    29    16    17    1
@<TRIPOS>MOLECULE
*****
 26 29 0 0 0
SMALL
GASTEIGER

@<TRIPOS>ATOM
      1 C         137.7675  140.4175  160.3281 C.ar    1  UNL1        0.1694
      2 N         137.7528  140.2536  158.8371 N.ar    1  UNL1       -0.1474
      3 N         138.3895  141.4690  158.2309 N.ar    1  UNL1       -0.2084
      4 C         138.6503  141.8607  156.8066 C.ar    1  UNL1        0.1004
      5 C         139.3193  143.1675  156.4986 C.ar    1  UNL1        0.0268
      6 C         139.7274  144.0825  157.6148 C.ar    1  UNL1        0.0609
      7 N         139.4666  143.6908  159.0392 N.ar    1  UNL1       -0.2299
      8 C         138.7976  142.3841  159.3471 C.ar    1  UNL1        0.1838
      9 C         138.4132  141.7342  160.6433 C.ar    1  UNL1        0.1787
     10 C         140.3964  145.3893  157.3069 C.3     1  UNL1        0.0629
     11 C         140.6572  145.7809  155.8826 C.3     1  UNL1        0.0787
     12 N         140.2490  144.8658  154.7663 N.3     1  UNL1       -0.2673
     13 C         140.5099  145.2576  153.3420 C.3     1  UNL1        0.0899
     14 C         139.5801  143.5591  155.0743 C.3     1  UNL1        0.1019
     15 C         138.0775  138.2825  161.7757 C.3     1  UNL1        0.1097
     16 N         137.2307  139.4369  161.3282 N.pl3   1  UNL1       -0.3142
     17 H         136.3226  139.5510  161.6909 H       1  UNL1        0.1483
     18 S         138.6355  142.3015  162.0139 S.O2    1  UNL1        0.0331
     19 O         139.7199  141.2936  162.2553 O.2     1  UNL1       -0.1641
     20 O         137.5512  143.3095  161.7726 O.2     1  UNL1       -0.1641
     21 C         138.8578  142.8689  163.3846 C.ar    1  UNL1        0.1105
     22 C         138.1974  144.1565  163.7796 C.ar    1  UNL1        0.0187
     23 C         138.4196  144.7238  165.1502 C.ar    1  UNL1        0.0013
     24 C         139.3023  144.0035  166.1260 C.ar    1  UNL1        0.0001
     25 C         139.9627  142.7159  165.7311 C.ar    1  UNL1        0.0013
     26 C         139.7404  142.1486  164.3604 C.ar    1  UNL1        0.0187
@<TRIPOS>BOND
     1    15    16    1
     2    16     1    1
     3     1     2   ar
     4     2     3   ar
     5     3     4   ar
     6     4     5   ar
     7     5     6   ar
     8     6     7   ar
     9     7     8   ar
    10     8     9   ar
    11     9    18    1
    12    18    19    2
    13    18    20    2
    14    18    21    1
    15    21    22   ar
    16    22    23   ar
    17    23    24   ar
    18    24    25   ar
    19    25    26   ar
    20     6    10    1
    21    10    11    1
    22    11    12    1
    23    12    13    1
    24    12    14    1
    25     9     1   ar
    26    26    21   ar
    27     8     3   ar
    28    14     5    1
    29    16    17    1
@<TRIPOS>MOLECULE
*****
 26 29 0 0 0
SMALL
GASTEIGER

@<TRIPOS>ATOM
      1 C         138.6050  139.4166  162.6146 C.ar    1  UNL1        0.1694
      2 N         138.5192  138.6276  163.8874 N.ar    1  UNL1       -0.1474
      3 N         139.0416  139.4860  165.0011 N.ar    1  UNL1       -0.2084
      4 C         139.1980  139.2365  166.4718 C.ar    1  UNL1        0.1004
      5 C         139.7631  140.3066  167.3582 C.ar    1  UNL1        0.0268
      6 C         140.1718  141.6262  166.7737 C.ar    1  UNL1        0.0609
      7 N         140.0154  141.8757  165.3028 N.ar    1  UNL1       -0.2299
      8 C         139.4504  140.8056  164.4165 C.ar    1  UNL1        0.1838
      9 C         139.1805  140.7627  162.9416 C.ar    1  UNL1        0.1787
     10 C         140.7369  142.6963  167.6599 C.3     1  UNL1        0.0629
     11 C         140.8933  142.4468  169.1307 C.3     1  UNL1        0.0787
     12 N         140.4845  141.1273  169.7152 N.3     1  UNL1       -0.2673
     13 C         140.6409  140.8778  171.1861 C.3     1  UNL1        0.0899
     14 C         139.9195  140.0572  168.8290 C.3     1  UNL1        0.1019
     15 C         139.2167  138.4230  160.2933 C.3     1  UNL1        0.1097
     16 N         138.1885  138.9428  161.2537 N.pl3   1  UNL1       -0.3142
     17 H         137.2402  138.9731  160.9909 H       1  UNL1        0.1483
     18 S         139.4405  141.8713  161.9652 S.O2    1  UNL1        0.0331
     19 O         137.9639  142.0963  161.8275 O.2     1  UNL1       -0.1641
     20 O         140.9171  141.6462  162.1029 O.2     1  UNL1       -0.1641
     21 C         139.7006  142.9799  160.9887 C.ar    1  UNL1        0.1105
     22 C         139.4860  142.7529  159.5216 C.ar    1  UNL1        0.0187
     23 C         139.7461  143.8615  158.5453 C.ar    1  UNL1        0.0013
     24 C         140.2209  145.1972  159.0360 C.ar    1  UNL1        0.0001
     25 C         140.4355  145.4241  160.5031 C.ar    1  UNL1        0.0013
     26 C         140.1753  144.3155  161.4795 C.ar    1  UNL1        0.0187
@<TRIPOS>BOND
     1    15    16    1
     2    16     1    1
     3     1     2   ar
     4     2     3   ar
     5     3     4   ar
     6     4     5   ar
     7     5     6   ar
     8     6     7   ar
     9     7     8   ar
    10     8     9   ar
    11     9    18    1
    12    18    19    2
    13    18    20    2
    14    18    21    1
    15    21    22   ar
    16    22    23   ar
    17    23    24   ar
    18    24    25   ar
    19    25    26   ar
    20     6    10    1
    21    10    11    1
    22    11    12    1
    23    12    13    1
    24    12    14    1
    25     9     1   ar
    26    26    21   ar
    27     8     3   ar
    28    14     5    1
    29    16    17    1
@<TRIPOS>MOLECULE
*****
 26 29 0 0 0
SMALL
GASTEIGER

@<TRIPOS>ATOM
      1 C         138.8082  140.1153  157.3703 C.ar    1  UNL1        0.1694
      2 N         138.0810  140.8333  158.4683 N.ar    1  UNL1       -0.1474
      3 N         138.4027  140.1477  159.7631 N.ar    1  UNL1       -0.2084
      4 C         137.9721  140.4155  161.1747 C.ar    1  UNL1        0.1004
      5 C         138.4675  139.5415  162.2887 C.ar    1  UNL1        0.0268
      6 C         139.3935  138.3997  161.9909 C.ar    1  UNL1        0.0609
      7 N         139.8242  138.1319  160.5791 N.ar    1  UNL1       -0.2299
      8 C         139.3288  139.0059  159.4653 C.ar    1  UNL1        0.1838
      9 C         139.5794  138.9859  157.9865 C.ar    1  UNL1        0.1787
     10 C         139.8889  137.5257  163.1047 C.3     1  UNL1        0.0629
     11 C         139.4583  137.7936  164.5163 C.3     1  UNL1        0.0787
     12 N         138.5322  138.9354  164.8141 N.3     1  UNL1       -0.2673
     13 C         138.1016  139.2032  166.2259 C.3     1  UNL1        0.0899
     14 C         138.0368  139.8093  163.7003 C.3     1  UNL1        0.1019
     15 C         139.8911  141.2536  155.3012 C.3     1  UNL1        0.1097
     16 N         138.7708  140.4653  155.9122 N.pl3   1  UNL1       -0.3142
     17 H         138.0110  140.1776  155.3563 H       1  UNL1        0.1483
     18 S         140.4486  138.0081  157.2527 S.O2    1  UNL1        0.0331
     19 O         139.2339  137.4189  156.5990 O.2     1  UNL1       -0.1641
     20 O         141.6633  138.5973  157.9065 O.2     1  UNL1       -0.1641
     21 C         141.3178  137.0303  156.5190 C.ar    1  UNL1        0.1105
     22 C         140.7199  136.1256  155.4827 C.ar    1  UNL1        0.0187
     23 C         141.5891  135.1479  154.7490 C.ar    1  UNL1        0.0013
     24 C         143.0565  135.0748  155.0516 C.ar    1  UNL1        0.0001
     25 C         143.6545  135.9795  156.0879 C.ar    1  UNL1        0.0013
     26 C         142.7852  136.9573  156.8216 C.ar    1  UNL1        0.0187
@<TRIPOS>BOND
     1    15    16    1
     2    16     1    1
     3     1     2   ar
     4     2     3   ar
     5     3     4   ar
     6     4     5   ar
     7     5     6   ar
     8     6     7   ar
     9     7     8   ar
    10     8     9   ar
    11     9    18    1
    12    18    19    2
    13    18    20    2
    14    18    21    1
    15    21    22   ar
    16    22    23   ar
    17    23    24   ar
    18    24    25   ar
    19    25    26   ar
    20     6    10    1
    21    10    11    1
    22    11    12    1
    23    12    13    1
    24    12    14    1
    25     9     1   ar
    26    26    21   ar
    27     8     3   ar
    28    14     5    1
    29    16    17    1
