@<TRIPOS>MOLECULE
*****
 26 28 0 0 0
SMALL
GASTEIGER

@<TRIPOS>ATOM
      1 C         145.7861  141.2771  163.9024 C.3     1  UNL1        0.0477
      2 C         144.4685  141.7650  163.3773 C.3     1  UNL1        0.1780
      3 C         144.7426  142.8170  164.4108 C.3     1  UNL1        0.0685
      4 C         143.7628  143.9327  164.6235 C.3     1  UNL1        0.1145
      5 N         142.5089  143.9963  163.8027 N.ar    1  UNL1       -0.2749
      6 C         141.3670  144.9690  163.7883 C.ar    1  UNL1        0.1779
      7 C         140.3872  144.5181  162.7458 C.ar    1  UNL1        0.3976
      8 N         140.9235  143.2668  162.1160 N.ar    1  UNL1       -0.1275
      9 C         142.2347  142.9443  162.7693 C.ar    1  UNL1        0.3057
     10 O         143.2145  141.8287  162.5565 O.3     1  UNL1       -0.4512
     11 N         139.0975  145.1990  162.3947 N.pl3   1  UNL1        0.1030
     12 O         137.8018  144.6805  162.9444 O.2     1  UNL1        0.0432
     13 O         139.1037  146.3984  161.4940 O.co2   1  UNL1       -0.5746
     14 C         144.6519  140.5436  162.5262 C.3     1  UNL1        0.2450
     15 O         144.5060  139.1789  163.1313 O.3     1  UNL1       -0.4717
     16 C         143.1542  138.6878  163.5572 C.ar    1  UNL1        0.1389
     17 C         142.7019  138.8721  164.9754 C.ar    1  UNL1        0.0400
     18 C         141.3500  138.3810  165.4013 C.ar    1  UNL1        0.0403
     19 C         140.4505  137.7057  164.4089 C.ar    1  UNL1        0.1470
     20 C         140.9028  137.5214  162.9907 C.ar    1  UNL1        0.0403
     21 C         142.2547  138.0124  162.5648 C.ar    1  UNL1        0.0400
     22 O         139.0987  137.2146  164.8348 O.3     1  UNL1       -0.4045
     23 C         138.2406  138.0605  165.7282 C.3     1  UNL1        0.5753
     24 F         137.3825  138.9065  166.6216 F       1  UNL1       -0.1328
     25 F         137.9374  136.8595  166.5742 F       1  UNL1       -0.1328
     26 F         138.5437  139.2615  164.8822 F       1  UNL1       -0.1328
@<TRIPOS>UNITY_ATOM_ATTR
11 1
charge 1
13 1
charge -1
@<TRIPOS>BOND
     1     2     1    1
     2     2    14    1
     3    14    15    1
     4    15    16    1
     5    16    17   ar
     6    17    18   ar
     7    18    19   ar
     8    19    22    1
     9    22    23    1
    10    23    24    1
    11    23    25    1
    12    23    26    1
    13    19    20   ar
    14    20    21   ar
    15     2     3    1
    16     3     4    1
    17     4     5    1
    18     5     6   ar
    19     6     7   ar
    20     7    11    1
    21    11    12    2
    22    11    13    1
    23     7     8   ar
    24     8     9   ar
    25     9    10    1
    26    10     2    1
    27    21    16   ar
    28     9     5   ar
@<TRIPOS>MOLECULE
*****
 26 28 0 0 0
SMALL
GASTEIGER

@<TRIPOS>ATOM
      1 C         139.9360  138.7905  159.8865 C.3     1  UNL1        0.0477
      2 C         140.3217  138.5269  161.3119 C.3     1  UNL1        0.1780
      3 C         141.5964  139.1337  160.8051 C.3     1  UNL1        0.0685
      4 C         142.7675  139.2980  161.7278 C.3     1  UNL1        0.1145
      5 N         142.6640  138.8553  163.1573 N.ar    1  UNL1       -0.2749
      6 C         143.6442  138.8900  164.2923 C.ar    1  UNL1        0.1779
      7 C         142.9753  138.3046  165.5004 C.ar    1  UNL1        0.3976
      8 N         141.5817  137.9081  165.1122 N.ar    1  UNL1       -0.1275
      9 C         141.3893  138.2485  163.6641 C.ar    1  UNL1        0.3057
     10 O         140.2182  138.0842  162.7414 O.3     1  UNL1       -0.4512
     11 N         143.5917  138.1438  166.8585 N.pl3   1  UNL1        0.1030
     12 O         144.6526  137.1075  167.0827 O.2     1  UNL1        0.0432
     13 O         143.1470  139.0195  167.9924 O.co2   1  UNL1       -0.5746
     14 C         138.9131  138.0115  161.3237 C.3     1  UNL1        0.2450
     15 O         137.9171  138.5728  162.2948 O.3     1  UNL1       -0.4717
     16 C         137.9577  140.0286  162.6536 C.ar    1  UNL1        0.1389
     17 C         138.1109  140.4439  164.0868 C.ar    1  UNL1        0.0400
     18 C         138.1515  141.8997  164.4456 C.ar    1  UNL1        0.0403
     19 C         138.0389  142.9404  163.3712 C.ar    1  UNL1        0.1470
     20 C         137.8856  142.5252  161.9380 C.ar    1  UNL1        0.0403
     21 C         137.8451  141.0693  161.5792 C.ar    1  UNL1        0.0400
     22 O         138.0794  144.3963  163.7300 O.3     1  UNL1       -0.4045
     23 C         138.4203  144.8146  165.1296 C.3     1  UNL1        0.5753
     24 F         138.7610  145.2330  166.5292 F       1  UNL1       -0.1328
     25 F         139.8742  144.8557  164.7633 F       1  UNL1       -0.1328
     26 F         136.9662  144.7736  165.4959 F       1  UNL1       -0.1328
@<TRIPOS>UNITY_ATOM_ATTR
11 1
charge 1
13 1
charge -1
@<TRIPOS>BOND
     1     2     1    1
     2     2    14    1
     3    14    15    1
     4    15    16    1
     5    16    17   ar
     6    17    18   ar
     7    18    19   ar
     8    19    22    1
     9    22    23    1
    10    23    24    1
    11    23    25    1
    12    23    26    1
    13    19    20   ar
    14    20    21   ar
    15     2     3    1
    16     3     4    1
    17     4     5    1
    18     5     6   ar
    19     6     7   ar
    20     7    11    1
    21    11    12    2
    22    11    13    1
    23     7     8   ar
    24     8     9   ar
    25     9    10    1
    26    10     2    1
    27    21    16   ar
    28     9     5   ar
@<TRIPOS>MOLECULE
*****
 26 28 0 0 0
SMALL
GASTEIGER

@<TRIPOS>ATOM
      1 C         140.5505  137.7006  164.3678 C.3     1  UNL1        0.0477
      2 C         140.3699  138.5837  165.5668 C.3     1  UNL1        0.1780
      3 C         141.8672  138.5065  165.5235 C.3     1  UNL1        0.0685
      4 C         142.6856  139.2326  166.5495 C.3     1  UNL1        0.1145
      5 N         142.0066  140.0360  167.6189 N.ar    1  UNL1       -0.2749
      6 C         142.5460  140.8520  168.7562 C.ar    1  UNL1        0.1779
      7 C         141.3819  141.4335  169.5024 C.ar    1  UNL1        0.3976
      8 N         140.1232  140.9768  168.8263 N.ar    1  UNL1       -0.1275
      9 C         140.5093  140.1132  167.6623 C.ar    1  UNL1        0.3057
     10 O         139.6909  139.3870  166.6362 O.3     1  UNL1       -0.4512
     11 N         141.4624  142.3166  170.7123 N.pl3   1  UNL1        0.1030
     12 O         142.4537  143.4414  170.7552 O.2     1  UNL1        0.0432
     13 O         140.5515  142.0747  171.8792 O.co2   1  UNL1       -0.5746
     14 C         138.9353  138.3542  165.1937 C.3     1  UNL1        0.2450
     15 O         138.4458  138.7325  163.8272 O.3     1  UNL1       -0.4717
     16 C         138.3832  140.1764  163.4260 C.ar    1  UNL1        0.1389
     17 C         138.8358  140.5953  162.0587 C.ar    1  UNL1        0.0400
     18 C         138.7731  142.0393  161.6575 C.ar    1  UNL1        0.0403
     19 C         138.2578  143.0644  162.6238 C.ar    1  UNL1        0.1470
     20 C         137.8052  142.6456  163.9911 C.ar    1  UNL1        0.0403
     21 C         137.8679  141.2016  164.3923 C.ar    1  UNL1        0.0400
     22 O         138.1952  144.5084  162.2226 O.3     1  UNL1       -0.4045
     23 C         139.4186  145.3699  162.3276 C.3     1  UNL1        0.5753
     24 F         140.6421  146.2314  162.4327 F       1  UNL1       -0.1328
     25 F         139.5919  145.3053  160.8391 F       1  UNL1       -0.1328
     26 F         139.2453  145.4345  163.8162 F       1  UNL1       -0.1328
@<TRIPOS>UNITY_ATOM_ATTR
11 1
charge 1
13 1
charge -1
@<TRIPOS>BOND
     1     2     1    1
     2     2    14    1
     3    14    15    1
     4    15    16    1
     5    16    17   ar
     6    17    18   ar
     7    18    19   ar
     8    19    22    1
     9    22    23    1
    10    23    24    1
    11    23    25    1
    12    23    26    1
    13    19    20   ar
    14    20    21   ar
    15     2     3    1
    16     3     4    1
    17     4     5    1
    18     5     6   ar
    19     6     7   ar
    20     7    11    1
    21    11    12    2
    22    11    13    1
    23     7     8   ar
    24     8     9   ar
    25     9    10    1
    26    10     2    1
    27    21    16   ar
    28     9     5   ar
@<TRIPOS>MOLECULE
*****
 26 28 0 0 0
SMALL
GASTEIGER

@<TRIPOS>ATOM
      1 C         140.6663  138.1148  162.5941 C.3     1  UNL1        0.0477
      2 C         140.0104  138.4046  163.9116 C.3     1  UNL1        0.1780
      3 C         141.3712  138.9822  164.1655 C.3     1  UNL1        0.0685
      4 C         141.6826  139.6140  165.4898 C.3     1  UNL1        0.1145
      5 N         140.6332  139.6682  166.5602 N.ar    1  UNL1       -0.2749
      6 C         140.6485  140.2234  167.9536 C.ar    1  UNL1        0.1779
      7 C         139.2971  139.9889  168.5609 C.ar    1  UNL1        0.3976
      8 N         138.4466  139.2888  167.5427 N.ar    1  UNL1       -0.1275
      9 C         139.2724  139.0906  166.3063 C.ar    1  UNL1        0.3057
     10 O         138.9610  138.4588  164.9820 O.3     1  UNL1       -0.4512
     11 N         138.8710  140.3850  169.9435 N.pl3   1  UNL1        0.1030
     12 O         139.4936  141.5772  170.6075 O.2     1  UNL1        0.0432
     13 O         137.8222  139.5888  170.6620 O.co2   1  UNL1       -0.5746
     14 C         138.8774  137.7263  163.2001 C.3     1  UNL1        0.2450
     15 O         138.0490  138.4900  162.2099 O.3     1  UNL1       -0.4717
     16 C         138.0701  139.9898  162.2127 C.ar    1  UNL1        0.1389
     17 C         138.6393  140.7341  161.0414 C.ar    1  UNL1        0.0400
     18 C         138.6604  142.2339  161.0442 C.ar    1  UNL1        0.0403
     19 C         138.1123  142.9895  162.2184 C.ar    1  UNL1        0.1470
     20 C         137.5431  142.2453  163.3897 C.ar    1  UNL1        0.0403
     21 C         137.5220  140.7454  163.3869 C.ar    1  UNL1        0.0400
     22 O         138.1334  144.4893  162.2212 O.3     1  UNL1       -0.4045
     23 C         139.4106  145.2210  162.5101 C.3     1  UNL1        0.5753
     24 F         140.6878  145.9527  162.7989 F       1  UNL1       -0.1328
     25 F         139.1255  145.1382  163.9804 F       1  UNL1       -0.1328
     26 F         139.6957  145.3038  161.0397 F       1  UNL1       -0.1328
@<TRIPOS>UNITY_ATOM_ATTR
11 1
charge 1
13 1
charge -1
@<TRIPOS>BOND
     1     2     1    1
     2     2    14    1
     3    14    15    1
     4    15    16    1
     5    16    17   ar
     6    17    18   ar
     7    18    19   ar
     8    19    22    1
     9    22    23    1
    10    23    24    1
    11    23    25    1
    12    23    26    1
    13    19    20   ar
    14    20    21   ar
    15     2     3    1
    16     3     4    1
    17     4     5    1
    18     5     6   ar
    19     6     7   ar
    20     7    11    1
    21    11    12    2
    22    11    13    1
    23     7     8   ar
    24     8     9   ar
    25     9    10    1
    26    10     2    1
    27    21    16   ar
    28     9     5   ar
@<TRIPOS>MOLECULE
*****
 26 28 0 0 0
SMALL
GASTEIGER

@<TRIPOS>ATOM
      1 C         144.8798  140.0340  164.3165 C.3     1  UNL1        0.0477
      2 C         143.6377  140.7624  163.8964 C.3     1  UNL1        0.1780
      3 C         144.5690  141.9231  164.0852 C.3     1  UNL1        0.0685
      4 C         144.0845  143.3211  163.8390 C.3     1  UNL1        0.1145
      5 N         142.6687  143.5585  163.4040 N.ar    1  UNL1       -0.2749
      6 C         141.9131  144.8153  163.0883 C.ar    1  UNL1        0.1779
      7 C         140.5148  144.4314  162.7044 C.ar    1  UNL1        0.3976
      8 N         140.4063  142.9374  162.7828 N.ar    1  UNL1       -0.1275
      9 C         141.7374  142.3979  163.2152 C.ar    1  UNL1        0.3057
     10 O         142.2219  140.9999  163.4614 O.3     1  UNL1       -0.4512
     11 N         139.4176  145.3757  162.3110 N.pl3   1  UNL1        0.1030
     12 O         137.9833  144.9682  162.4737 O.2     1  UNL1        0.0432
     13 O         139.7549  146.7274  161.7551 O.co2   1  UNL1       -0.5746
     14 C         143.1378  139.3489  163.8535 C.3     1  UNL1        0.2450
     15 O         142.7280  138.6594  165.1211 O.3     1  UNL1       -0.4717
     16 C         141.9932  139.4199  166.1848 C.ar    1  UNL1        0.1389
     17 C         140.5131  139.6332  166.0675 C.ar    1  UNL1        0.0400
     18 C         139.7783  140.3937  167.1313 C.ar    1  UNL1        0.0403
     19 C         140.5236  140.9410  168.3124 C.ar    1  UNL1        0.1470
     20 C         142.0037  140.7277  168.4297 C.ar    1  UNL1        0.0403
     21 C         142.7385  139.9672  167.3660 C.ar    1  UNL1        0.0400
     22 O         139.7888  141.7015  169.3762 O.3     1  UNL1       -0.4045
     23 C         140.2131  143.0961  169.7300 C.3     1  UNL1        0.5753
     24 F         140.6375  144.4907  170.0836 F       1  UNL1       -0.1328
     25 F         140.2778  142.7092  171.1777 F       1  UNL1       -0.1328
     26 F         140.1484  143.4830  168.2821 F       1  UNL1       -0.1328
@<TRIPOS>UNITY_ATOM_ATTR
11 1
charge 1
13 1
charge -1
@<TRIPOS>BOND
     1     2     1    1
     2     2    14    1
     3    14    15    1
     4    15    16    1
     5    16    17   ar
     6    17    18   ar
     7    18    19   ar
     8    19    22    1
     9    22    23    1
    10    23    24    1
    11    23    25    1
    12    23    26    1
    13    19    20   ar
    14    20    21   ar
    15     2     3    1
    16     3     4    1
    17     4     5    1
    18     5     6   ar
    19     6     7   ar
    20     7    11    1
    21    11    12    2
    22    11    13    1
    23     7     8   ar
    24     8     9   ar
    25     9    10    1
    26    10     2    1
    27    21    16   ar
    28     9     5   ar
@<TRIPOS>MOLECULE
*****
 26 28 0 0 0
SMALL
GASTEIGER

@<TRIPOS>ATOM
      1 C         144.3563  139.5682  163.6957 C.3     1  UNL1        0.0477
      2 C         144.0182  140.4653  164.8493 C.3     1  UNL1        0.1780
      3 C         143.2126  139.2544  165.2162 C.3     1  UNL1        0.0685
      4 C         142.3894  139.2529  166.4701 C.3     1  UNL1        0.1145
      5 N         142.3719  140.4624  167.3572 N.ar    1  UNL1       -0.2749
      6 C         141.6612  140.7515  168.6462 C.ar    1  UNL1        0.1779
      7 C         142.0277  142.1411  169.0760 C.ar    1  UNL1        0.3976
      8 N         142.9648  142.7108  168.0526 N.ar    1  UNL1       -0.1275
      9 C         143.1775  141.6733  166.9903 C.ar    1  UNL1        0.3057
     10 O         144.0007  141.6747  165.7364 O.3     1  UNL1       -0.4512
     11 N         141.5423  142.8386  170.3121 N.pl3   1  UNL1        0.1030
     12 O         141.7200  142.1948  171.6552 O.2     1  UNL1        0.0432
     13 O         140.8792  144.1798  170.2051 O.co2   1  UNL1       -0.5746
     14 C         144.9413  141.3647  164.0818 C.3     1  UNL1        0.2450
     15 O         144.4294  142.1310  162.8983 O.3     1  UNL1       -0.4717
     16 C         143.1492  142.9056  163.0029 C.ar    1  UNL1        0.1389
     17 C         143.1686  144.3244  163.4892 C.ar    1  UNL1        0.0400
     18 C         141.8883  145.0990  163.5937 C.ar    1  UNL1        0.0403
     19 C         140.5886  144.4547  163.2120 C.ar    1  UNL1        0.1470
     20 C         140.5692  143.0359  162.7258 C.ar    1  UNL1        0.0403
     21 C         141.8495  142.2613  162.6212 C.ar    1  UNL1        0.0400
     22 O         139.3084  145.2293  163.3166 O.3     1  UNL1       -0.4045
     23 C         138.2125  144.7484  164.2209 C.3     1  UNL1        0.5753
     24 F         137.1165  144.2676  165.1252 F       1  UNL1       -0.1328
     25 F         139.0487  145.0929  165.4175 F       1  UNL1       -0.1328
     26 F         137.3761  144.4040  163.0242 F       1  UNL1       -0.1328
@<TRIPOS>UNITY_ATOM_ATTR
11 1
charge 1
13 1
charge -1
@<TRIPOS>BOND
     1     2     1    1
     2     2    14    1
     3    14    15    1
     4    15    16    1
     5    16    17   ar
     6    17    18   ar
     7    18    19   ar
     8    19    22    1
     9    22    23    1
    10    23    24    1
    11    23    25    1
    12    23    26    1
    13    19    20   ar
    14    20    21   ar
    15     2     3    1
    16     3     4    1
    17     4     5    1
    18     5     6   ar
    19     6     7   ar
    20     7    11    1
    21    11    12    2
    22    11    13    1
    23     7     8   ar
    24     8     9   ar
    25     9    10    1
    26    10     2    1
    27    21    16   ar
    28     9     5   ar
@<TRIPOS>MOLECULE
*****
 26 28 0 0 0
SMALL
GASTEIGER

@<TRIPOS>ATOM
      1 C         140.2329  145.6261  161.8246 C.3     1  UNL1        0.0477
      2 C         140.3948  144.8460  163.0955 C.3     1  UNL1        0.1780
      3 C         141.7981  144.7815  162.5697 C.3     1  UNL1        0.0685
      4 C         142.8564  144.0534  163.3442 C.3     1  UNL1        0.1145
      5 N         142.5113  143.3897  164.6444 N.ar    1  UNL1       -0.2749
      6 C         143.3367  142.6056  165.6212 C.ar    1  UNL1        0.1779
      7 C         142.4434  142.1855  166.7505 C.ar    1  UNL1        0.3976
      8 N         141.0660  142.7100  166.4718 N.ar    1  UNL1       -0.1275
      9 C         141.1080  143.4543  165.1702 C.ar    1  UNL1        0.3057
     10 O         140.0497  144.1824  164.3957 O.3     1  UNL1       -0.4512
     11 N         142.8552  141.3819  167.9484 N.pl3   1  UNL1        0.1030
     12 O         142.7031  139.8897  167.9389 O.2     1  UNL1        0.0432
     13 O         143.4190  142.0707  169.1558 O.co2   1  UNL1       -0.5746
     14 C         138.9352  145.1814  163.1798 C.3     1  UNL1        0.2450
     15 O         137.9451  144.4413  162.3301 O.3     1  UNL1       -0.4717
     16 C         137.9460  142.9415  162.3113 C.ar    1  UNL1        0.1389
     17 C         137.6075  142.1756  163.5558 C.ar    1  UNL1        0.0400
     18 C         137.6084  140.6757  163.5370 C.ar    1  UNL1        0.0403
     19 C         137.9479  139.9417  162.2736 C.ar    1  UNL1        0.1470
     20 C         138.2865  140.7076  161.0292 C.ar    1  UNL1        0.0403
     21 C         138.2856  142.2075  161.0480 C.ar    1  UNL1        0.0400
     22 O         137.9488  138.4419  162.2548 O.3     1  UNL1       -0.4045
     23 C         139.1716  137.6871  162.6848 C.3     1  UNL1        0.5753
     24 F         140.3945  136.9322  163.1149 F       1  UNL1       -0.1328
     25 F         139.7044  137.7521  161.2842 F       1  UNL1       -0.1328
     26 F         138.6389  137.6220  164.0856 F       1  UNL1       -0.1328
@<TRIPOS>UNITY_ATOM_ATTR
11 1
charge 1
13 1
charge -1
@<TRIPOS>BOND
     1     2     1    1
     2     2    14    1
     3    14    15    1
     4    15    16    1
     5    16    17   ar
     6    17    18   ar
     7    18    19   ar
     8    19    22    1
     9    22    23    1
    10    23    24    1
    11    23    25    1
    12    23    26    1
    13    19    20   ar
    14    20    21   ar
    15     2     3    1
    16     3     4    1
    17     4     5    1
    18     5     6   ar
    19     6     7   ar
    20     7    11    1
    21    11    12    2
    22    11    13    1
    23     7     8   ar
    24     8     9   ar
    25     9    10    1
    26    10     2    1
    27    21    16   ar
    28     9     5   ar
@<TRIPOS>MOLECULE
*****
 26 28 0 0 0
SMALL
GASTEIGER

@<TRIPOS>ATOM
      1 C         145.5958  142.1663  162.7091 C.3     1  UNL1        0.0477
      2 C         144.3264  142.4360  163.4613 C.3     1  UNL1        0.1780
      3 C         144.0746  143.2484  162.2258 C.3     1  UNL1        0.0685
      4 C         142.7940  144.0158  162.0808 C.3     1  UNL1        0.1145
      5 N         141.7651  143.9708  163.1714 N.ar    1  UNL1       -0.2749
      6 C         140.4191  144.6185  163.3088 C.ar    1  UNL1        0.1779
      7 C         139.8391  144.2064  164.6293 C.ar    1  UNL1        0.3976
      8 N         140.8265  143.3040  165.3080 N.ar    1  UNL1       -0.1275
      9 C         142.0169  143.1584  164.4070 C.ar    1  UNL1        0.3057
     10 O         143.2975  142.3910  164.5519 O.3     1  UNL1       -0.4512
     11 N         138.5056  144.6235  165.1754 N.pl3   1  UNL1        0.1030
     12 O         138.4337  145.5612  166.3439 O.2     1  UNL1        0.0432
     13 O         137.2441  144.1028  164.5528 O.co2   1  UNL1       -0.5746
     14 C         145.0190  141.5299  164.4356 C.3     1  UNL1        0.2450
     15 O         145.0892  140.0554  164.1693 O.3     1  UNL1       -0.4717
     16 C         143.8421  139.2945  163.8292 C.ar    1  UNL1        0.1389
     17 C         143.5077  139.0046  162.3961 C.ar    1  UNL1        0.0400
     18 C         142.2606  138.2436  162.0560 C.ar    1  UNL1        0.0403
     19 C         141.3479  137.7725  163.1492 C.ar    1  UNL1        0.1470
     20 C         141.6823  138.0623  164.5824 C.ar    1  UNL1        0.0403
     21 C         142.9294  138.8233  164.9225 C.ar    1  UNL1        0.0400
     22 O         140.1008  137.0115  162.8091 O.3     1  UNL1       -0.4045
     23 C         138.8356  137.7502  162.4873 C.3     1  UNL1        0.5753
     24 F         137.5704  138.4889  162.1654 F       1  UNL1       -0.1328
     25 F         138.5086  137.8269  163.9492 F       1  UNL1       -0.1328
     26 F         139.1627  137.6734  161.0254 F       1  UNL1       -0.1328
@<TRIPOS>UNITY_ATOM_ATTR
11 1
charge 1
13 1
charge -1
@<TRIPOS>BOND
     1     2     1    1
     2     2    14    1
     3    14    15    1
     4    15    16    1
     5    16    17   ar
     6    17    18   ar
     7    18    19   ar
     8    19    22    1
     9    22    23    1
    10    23    24    1
    11    23    25    1
    12    23    26    1
    13    19    20   ar
    14    20    21   ar
    15     2     3    1
    16     3     4    1
    17     4     5    1
    18     5     6   ar
    19     6     7   ar
    20     7    11    1
    21    11    12    2
    22    11    13    1
    23     7     8   ar
    24     8     9   ar
    25     9    10    1
    26    10     2    1
    27    21    16   ar
    28     9     5   ar
@<TRIPOS>MOLECULE
*****
 26 28 0 0 0
SMALL
GASTEIGER

@<TRIPOS>ATOM
      1 C         139.2644  137.4229  164.8421 C.3     1  UNL1        0.0477
      2 C         140.1610  137.6201  163.6558 C.3     1  UNL1        0.1780
      3 C         138.8215  137.7724  162.9981 C.3     1  UNL1        0.0685
      4 C         138.7357  138.0452  161.5256 C.3     1  UNL1        0.1145
      5 N         139.9894  138.1658  160.7109 N.ar    1  UNL1       -0.2749
      6 C         140.2167  138.4289  159.2517 C.ar    1  UNL1        0.1779
      7 C         141.6966  138.4391  159.0076 C.ar    1  UNL1        0.3976
      8 N         142.3840  138.1824  160.3159 N.ar    1  UNL1       -0.1275
      9 C         141.3288  138.0135  161.3686 C.ar    1  UNL1        0.3057
     10 O         141.4146  137.7406  162.8410 O.3     1  UNL1       -0.4512
     11 N         142.3709  138.6663  157.6871 N.pl3   1  UNL1        0.1030
     12 O         143.7558  139.2407  157.6410 O.2     1  UNL1        0.0432
     13 O         141.6603  138.3189  156.4125 O.co2   1  UNL1       -0.5746
     14 C         141.1891  137.3993  164.7255 C.3     1  UNL1        0.2450
     15 O         142.1262  138.5072  165.1053 O.3     1  UNL1       -0.4717
     16 C         141.8909  139.2909  166.3624 C.ar    1  UNL1        0.1389
     17 C         142.8320  139.1493  167.5217 C.ar    1  UNL1        0.0400
     18 C         142.5967  139.9329  168.7789 C.ar    1  UNL1        0.0403
     19 C         141.4201  140.8582  168.8767 C.ar    1  UNL1        0.1470
     20 C         140.4789  140.9998  167.7174 C.ar    1  UNL1        0.0403
     21 C         140.7143  140.2162  166.4602 C.ar    1  UNL1        0.0400
     22 O         141.1847  141.6419  170.1338 O.3     1  UNL1       -0.4045
     23 C         140.7657  143.0800  170.0539 C.3     1  UNL1        0.5753
     24 F         140.3464  144.5180  169.9741 F       1  UNL1       -0.1328
     25 F         142.1808  143.4757  169.7528 F       1  UNL1       -0.1328
     26 F         139.3504  142.6842  170.3551 F       1  UNL1       -0.1328
@<TRIPOS>UNITY_ATOM_ATTR
11 1
charge 1
13 1
charge -1
@<TRIPOS>BOND
     1     2     1    1
     2     2    14    1
     3    14    15    1
     4    15    16    1
     5    16    17   ar
     6    17    18   ar
     7    18    19   ar
     8    19    22    1
     9    22    23    1
    10    23    24    1
    11    23    25    1
    12    23    26    1
    13    19    20   ar
    14    20    21   ar
    15     2     3    1
    16     3     4    1
    17     4     5    1
    18     5     6   ar
    19     6     7   ar
    20     7    11    1
    21    11    12    2
    22    11    13    1
    23     7     8   ar
    24     8     9   ar
    25     9    10    1
    26    10     2    1
    27    21    16   ar
    28     9     5   ar
