@<TRIPOS>MOLECULE
*****
 27 29 0 0 0
SMALL
GASTEIGER

@<TRIPOS>ATOM
      1 C         139.1441  138.5313  164.1929 C.ar    1  UNL1        0.1390
      2 C         140.6418  138.6095  164.2209 C.ar    1  UNL1        0.0366
      3 C         141.3441  139.1054  165.4501 C.ar    1  UNL1        0.0001
      4 C         140.5486  139.5231  166.6513 C.ar    1  UNL1       -0.0078
      5 C         139.0509  139.4449  166.6232 C.ar    1  UNL1        0.0001
      6 C         138.3487  138.9490  165.3941 C.ar    1  UNL1        0.0366
      7 C         141.2509  140.0190  167.8805 C.3     1  UNL1        0.0772
      8 C         142.5627  139.5190  168.4087 C.3     1  UNL1        0.0221
      9 C         142.8872  140.2929  169.6519 C.3     1  UNL1        0.0268
     10 C         141.7759  141.2714  169.8921 C.3     1  UNL1        0.1315
     11 N         140.7646  141.1022  168.7973 N.3     1  UNL1       -0.2890
     12 H         140.6655  141.9754  168.2795 H       1  UNL1        0.1239
     13 C         141.6909  142.2477  171.0277 C.2     1  UNL1        0.2336
     14 N         142.7699  143.2720  171.2186 N.am    1  UNL1       -0.3277
     15 O         140.5267  142.1997  171.9723 O.2     1  UNL1       -0.2739
     16 H         143.5340  143.3035  170.5986 H       1  UNL1        0.1450
     17 H         142.7141  143.9128  171.9639 H       1  UNL1        0.1450
     18 O         138.4418  138.0354  162.9637 O.3     1  UNL1       -0.4706
     19 C         137.7876  139.0095  162.0292 C.3     1  UNL1        0.2320
     20 C         139.0541  143.3276  162.0320 C.ar    1  UNL1        0.0684
     21 C         139.8675  142.3079  161.2914 C.ar    1  UNL1        0.0101
     22 C         139.4453  140.8685  161.2905 C.ar    1  UNL1       -0.0000
     23 C         138.2098  140.4488  162.0302 C.ar    1  UNL1        0.0212
     24 C         137.3964  141.4685  162.7708 C.ar    1  UNL1       -0.0000
     25 C         137.8185  142.9079  162.7718 C.ar    1  UNL1        0.0101
     26 N         139.8983  146.2063  162.0339 N.1     1  UNL1       -0.1908
     27 C         139.4762  144.7670  162.0330 C.1     1  UNL1        0.1004
@<TRIPOS>BOND
     1    26    27    3
     2    27    20    1
     3    20    21   ar
     4    21    22   ar
     5    22    23   ar
     6    23    19    1
     7    19    18    1
     8    18     1    1
     9     1     2   ar
    10     2     3   ar
    11     3     4   ar
    12     7     4    1
    13     7     8    1
    14     8     9    1
    15     9    10    1
    16    10    13    1
    17    13    14   am
    18    13    15    2
    19    10    11    1
    20     4     5   ar
    21     5     6   ar
    22    23    24   ar
    23    24    25   ar
    24    25    20   ar
    25     6     1   ar
    26    11     7    1
    27    14    16    1
    28    14    17    1
    29    11    12    1
@<TRIPOS>MOLECULE
*****
 27 29 0 0 0
SMALL
GASTEIGER

@<TRIPOS>ATOM
      1 C         139.1760  138.5484  164.2008 C.ar    1  UNL1        0.1390
      2 C         138.3715  138.9991  165.3839 C.ar    1  UNL1        0.0366
      3 C         139.0656  139.4845  166.6219 C.ar    1  UNL1        0.0001
      4 C         140.5642  139.5191  166.6769 C.ar    1  UNL1       -0.0078
      5 C         141.3687  139.0683  165.4938 C.ar    1  UNL1        0.0001
      6 C         140.6746  138.5830  164.2558 C.ar    1  UNL1        0.0366
      7 C         141.2583  140.0044  167.9149 C.3     1  UNL1        0.0772
      8 C         142.5369  139.4601  168.4797 C.3     1  UNL1        0.0221
      9 C         142.8645  140.2386  169.7194 C.3     1  UNL1        0.0268
     10 C         141.7884  141.2640  169.9207 C.3     1  UNL1        0.1315
     11 N         140.7957  141.1193  168.8055 N.3     1  UNL1       -0.2890
     12 H         140.7434  141.9881  168.2737 H       1  UNL1        0.1239
     13 C         141.7173  142.2594  171.0406 C.2     1  UNL1        0.2336
     14 N         142.7978  143.2877  171.1997 N.am    1  UNL1       -0.3277
     15 O         140.5659  142.2264  172.0013 O.2     1  UNL1       -0.2739
     16 H         143.5535  143.3093  170.5691 H       1  UNL1        0.1450
     17 H         142.7511  143.9410  171.9347 H       1  UNL1        0.1450
     18 O         138.4819  138.0630  162.9628 O.3     1  UNL1       -0.4706
     19 C         137.7951  139.0406  162.0560 C.3     1  UNL1        0.2320
     20 C         139.0587  143.3595  162.0329 C.ar    1  UNL1        0.0684
     21 C         137.8159  142.9456  162.7636 C.ar    1  UNL1        0.0101
     22 C         137.3947  141.5059  162.7713 C.ar    1  UNL1       -0.0000
     23 C         138.2163  140.4802  162.0483 C.ar    1  UNL1        0.0212
     24 C         139.4591  140.8941  161.3176 C.ar    1  UNL1       -0.0000
     25 C         139.8803  142.3338  161.3099 C.ar    1  UNL1        0.0101
     26 N         139.9012  146.2387  162.0175 N.1     1  UNL1       -0.1908
     27 C         139.4800  144.7991  162.0252 C.1     1  UNL1        0.1004
@<TRIPOS>BOND
     1    26    27    3
     2    27    20    1
     3    20    21   ar
     4    21    22   ar
     5    22    23   ar
     6    23    19    1
     7    19    18    1
     8    18     1    1
     9     1     2   ar
    10     2     3   ar
    11     3     4   ar
    12     7     4    1
    13     7     8    1
    14     8     9    1
    15     9    10    1
    16    10    13    1
    17    13    14   am
    18    13    15    2
    19    10    11    1
    20     4     5   ar
    21     5     6   ar
    22    23    24   ar
    23    24    25   ar
    24    25    20   ar
    25     6     1   ar
    26    11     7    1
    27    14    16    1
    28    14    17    1
    29    11    12    1
@<TRIPOS>MOLECULE
*****
 27 29 0 0 0
SMALL
GASTEIGER

@<TRIPOS>ATOM
      1 C         140.1079  138.2002  163.7303 C.ar    1  UNL1        0.1390
      2 C         141.2795  138.7825  164.4642 C.ar    1  UNL1        0.0366
      3 C         141.0857  139.3973  165.8186 C.ar    1  UNL1        0.0001
      4 C         139.7204  139.4298  166.4392 C.ar    1  UNL1       -0.0078
      5 C         138.5490  138.8475  165.7053 C.ar    1  UNL1        0.0001
      6 C         138.7427  138.2326  164.3509 C.ar    1  UNL1        0.0366
      7 C         139.5267  140.0446  167.7936 C.3     1  UNL1        0.0772
      8 C         138.5873  139.5576  168.8568 C.3     1  UNL1        0.0221
      9 C         138.7183  140.4664  170.0429 C.3     1  UNL1        0.0268
     10 C         139.7387  141.5151  169.7128 C.3     1  UNL1        0.1315
     11 N         140.2383  141.2545  168.3227 N.3     1  UNL1       -0.2890
     12 H         141.2437  141.0836  168.3425 H       1  UNL1        0.1239
     13 C         140.1817  142.6289  170.6145 C.2     1  UNL1        0.2336
     14 N         140.2060  144.0403  170.1070 N.am    1  UNL1       -0.3277
     15 O         140.6005  142.3314  172.0238 O.2     1  UNL1       -0.2739
     16 H         139.9311  144.2355  169.1820 H       1  UNL1        0.1450
     17 H         140.4968  144.7713  170.6988 H       1  UNL1        0.1450
     18 O         140.3017  137.5854  162.3759 O.3     1  UNL1       -0.4706
     19 C         140.1271  138.4196  161.1416 C.3     1  UNL1        0.2320
     20 C         139.6005  142.8749  161.4930 C.ar    1  UNL1        0.0684
     21 C         140.9783  142.2847  161.4355 C.ar    1  UNL1        0.0101
     22 C         141.1538  140.7996  161.3184 C.ar    1  UNL1       -0.0000
     23 C         139.9516  139.9047  161.2588 C.ar    1  UNL1        0.0212
     24 C         138.5738  140.4948  161.3163 C.ar    1  UNL1       -0.0000
     25 C         138.3983  141.9799  161.4334 C.ar    1  UNL1        0.0101
     26 N         139.2494  145.8450  161.7273 N.1     1  UNL1       -0.1908
     27 C         139.4250  144.3599  161.6102 C.1     1  UNL1        0.1004
@<TRIPOS>BOND
     1    26    27    3
     2    27    20    1
     3    20    21   ar
     4    21    22   ar
     5    22    23   ar
     6    23    19    1
     7    19    18    1
     8    18     1    1
     9     1     2   ar
    10     2     3   ar
    11     3     4   ar
    12     7     4    1
    13     7     8    1
    14     8     9    1
    15     9    10    1
    16    10    13    1
    17    13    14   am
    18    13    15    2
    19    10    11    1
    20     4     5   ar
    21     5     6   ar
    22    23    24   ar
    23    24    25   ar
    24    25    20   ar
    25     6     1   ar
    26    11     7    1
    27    14    16    1
    28    14    17    1
    29    11    12    1
@<TRIPOS>MOLECULE
*****
 27 29 0 0 0
SMALL
GASTEIGER

@<TRIPOS>ATOM
      1 C         138.6443  138.6827  163.5458 C.ar    1  UNL1        0.1390
      2 C         139.2481  137.8294  164.6217 C.ar    1  UNL1        0.0366
      3 C         139.4803  138.3998  165.9895 C.ar    1  UNL1        0.0001
      4 C         139.1087  139.8235  166.2813 C.ar    1  UNL1       -0.0078
      5 C         138.5050  140.6767  165.2055 C.ar    1  UNL1        0.0001
      6 C         138.2728  140.1063  163.8377 C.ar    1  UNL1        0.0366
      7 C         139.3409  140.3939  167.6491 C.3     1  UNL1        0.0772
      8 C         138.8229  139.8303  168.9390 C.3     1  UNL1        0.0221
      9 C         139.2937  140.7162  170.0542 C.3     1  UNL1        0.0268
     10 C         140.1027  141.8273  169.4535 C.3     1  UNL1        0.1315
     11 N         140.1319  141.6282  167.9670 N.3     1  UNL1       -0.2890
     12 H         141.0952  141.5127  167.6521 H       1  UNL1        0.1239
     13 C         140.7661  142.9419  170.2069 C.2     1  UNL1        0.2336
     14 N         140.2349  144.3405  170.0988 N.am    1  UNL1       -0.3277
     15 O         141.9607  142.6579  171.0683 O.2     1  UNL1       -0.2739
     16 H         139.4508  144.5269  169.5333 H       1  UNL1        0.1450
     17 H         140.6703  145.0721  170.5933 H       1  UNL1        0.1450
     18 O         138.4121  138.1123  162.1781 O.3     1  UNL1       -0.4706
     19 C         139.4913  138.1915  161.1393 C.3     1  UNL1        0.2320
     20 C         143.3634  140.2858  162.0726 C.ar    1  UNL1        0.0684
     21 C         143.2297  138.8121  162.3180 C.ar    1  UNL1        0.0101
     22 C         141.9390  138.1140  162.0069 C.ar    1  UNL1       -0.0000
     23 C         140.7820  138.8896  161.4504 C.ar    1  UNL1        0.0212
     24 C         140.9156  140.3633  161.2051 C.ar    1  UNL1       -0.0000
     25 C         142.2063  141.0614  161.5162 C.ar    1  UNL1        0.0101
     26 N         145.9447  141.6820  162.6949 N.1     1  UNL1       -0.1908
     27 C         144.6540  140.9839  162.3838 C.1     1  UNL1        0.1004
@<TRIPOS>BOND
     1    26    27    3
     2    27    20    1
     3    20    21   ar
     4    21    22   ar
     5    22    23   ar
     6    23    19    1
     7    19    18    1
     8    18     1    1
     9     1     2   ar
    10     2     3   ar
    11     3     4   ar
    12     7     4    1
    13     7     8    1
    14     8     9    1
    15     9    10    1
    16    10    13    1
    17    13    14   am
    18    13    15    2
    19    10    11    1
    20     4     5   ar
    21     5     6   ar
    22    23    24   ar
    23    24    25   ar
    24    25    20   ar
    25     6     1   ar
    26    11     7    1
    27    14    16    1
    28    14    17    1
    29    11    12    1
@<TRIPOS>MOLECULE
*****
 27 29 0 0 0
SMALL
GASTEIGER

@<TRIPOS>ATOM
      1 C         137.9421  141.5026  163.8331 C.ar    1  UNL1        0.1390
      2 C         138.6996  142.7692  164.1016 C.ar    1  UNL1        0.0366
      3 C         139.5984  142.8662  165.2985 C.ar    1  UNL1        0.0001
      4 C         139.7397  141.6966  166.2271 C.ar    1  UNL1       -0.0078
      5 C         138.9823  140.4301  165.9586 C.ar    1  UNL1        0.0001
      6 C         138.0835  140.3331  164.7617 C.ar    1  UNL1        0.0366
      7 C         140.6385  141.7936  167.4240 C.3     1  UNL1        0.0772
      8 C         142.0445  142.3163  167.4309 C.3     1  UNL1        0.0221
      9 C         142.5641  142.2307  168.8354 C.3     1  UNL1        0.0268
     10 C         141.4793  141.6551  169.6967 C.3     1  UNL1        0.1315
     11 N         140.2891  141.3849  168.8245 N.3     1  UNL1       -0.2890
     12 H         139.4891  141.9254  169.1534 H       1  UNL1        0.1239
     13 C         141.5687  141.3952  171.1713 C.2     1  UNL1        0.2336
     14 N         142.6022  140.4478  171.7046 N.am    1  UNL1       -0.3277
     15 O         140.6247  142.0828  172.1126 O.2     1  UNL1       -0.2739
     16 H         143.2218  139.9965  171.0867 H       1  UNL1        0.1450
     17 H         142.6609  140.2773  172.6724 H       1  UNL1        0.1450
     18 O         137.0433  141.4056  162.6362 O.3     1  UNL1       -0.4706
     19 C         137.4923  140.6506  161.4203 C.3     1  UNL1        0.2320
     20 C         141.5857  138.7843  161.3150 C.ar    1  UNL1        0.0684
     21 C         140.3945  137.9583  161.7007 C.ar    1  UNL1        0.0101
     22 C         139.0300  138.5804  161.7358 C.ar    1  UNL1       -0.0000
     23 C         138.8567  140.0285  161.3852 C.ar    1  UNL1        0.0212
     24 C         140.0479  140.8545  160.9996 C.ar    1  UNL1       -0.0000
     25 C         141.4124  140.2324  160.9645 C.ar    1  UNL1        0.0101
     26 N         144.3146  137.5401  161.2448 N.1     1  UNL1       -0.1908
     27 C         142.9501  138.1622  161.2799 C.1     1  UNL1        0.1004
@<TRIPOS>BOND
     1    26    27    3
     2    27    20    1
     3    20    21   ar
     4    21    22   ar
     5    22    23   ar
     6    23    19    1
     7    19    18    1
     8    18     1    1
     9     1     2   ar
    10     2     3   ar
    11     3     4   ar
    12     7     4    1
    13     7     8    1
    14     8     9    1
    15     9    10    1
    16    10    13    1
    17    13    14   am
    18    13    15    2
    19    10    11    1
    20     4     5   ar
    21     5     6   ar
    22    23    24   ar
    23    24    25   ar
    24    25    20   ar
    25     6     1   ar
    26    11     7    1
    27    14    16    1
    28    14    17    1
    29    11    12    1
@<TRIPOS>MOLECULE
*****
 27 29 0 0 0
SMALL
GASTEIGER

@<TRIPOS>ATOM
      1 C         143.5451  140.1318  163.6731 C.ar    1  UNL1        0.1390
      2 C         142.2677  139.3808  163.9069 C.ar    1  UNL1        0.0366
      3 C         141.4704  139.6270  165.1534 C.ar    1  UNL1        0.0001
      4 C         141.9503  140.6242  166.1660 C.ar    1  UNL1       -0.0078
      5 C         143.2276  141.3751  165.9321 C.ar    1  UNL1        0.0001
      6 C         144.0249  141.1289  164.6857 C.ar    1  UNL1        0.0366
      7 C         141.1530  140.8705  167.4124 C.3     1  UNL1        0.0772
      8 C         140.0208  140.0252  167.9162 C.3     1  UNL1        0.0221
      9 C         139.5158  140.6375  169.1890 C.3     1  UNL1        0.0268
     10 C         140.3360  141.8612  169.4719 C.3     1  UNL1        0.1315
     11 N         141.3478  142.0052  168.3740 N.3     1  UNL1       -0.2890
     12 H         142.2895  141.9704  168.7643 H       1  UNL1        0.1239
     13 C         140.1730  142.7797  170.6466 C.2     1  UNL1        0.2336
     14 N         139.9000  144.2381  170.4262 N.am    1  UNL1       -0.3277
     15 O         140.2830  142.2397  172.0417 O.2     1  UNL1       -0.2739
     16 H         139.8278  144.5924  169.5105 H       1  UNL1        0.1450
     17 H         139.7930  144.8409  171.1971 H       1  UNL1        0.1450
     18 O         144.3424  139.8855  162.4267 O.3     1  UNL1       -0.4706
     19 C         144.0089  140.6246  161.1648 C.3     1  UNL1        0.2320
     20 C         141.1650  144.1100  161.2831 C.ar    1  UNL1        0.0684
     21 C         142.6022  144.3013  161.6673 C.ar    1  UNL1        0.0101
     22 C         143.5502  143.1395  161.6279 C.ar    1  UNL1       -0.0000
     23 C         143.0609  141.7864  161.2042 C.ar    1  UNL1        0.0212
     24 C         141.6237  141.5950  160.8200 C.ar    1  UNL1       -0.0000
     25 C         140.6757  142.7568  160.8594 C.ar    1  UNL1        0.0101
     26 N         139.2690  146.4336  161.3620 N.1     1  UNL1       -0.1908
     27 C         140.2170  145.2718  161.3225 C.1     1  UNL1        0.1004
@<TRIPOS>BOND
     1    26    27    3
     2    27    20    1
     3    20    21   ar
     4    21    22   ar
     5    22    23   ar
     6    23    19    1
     7    19    18    1
     8    18     1    1
     9     1     2   ar
    10     2     3   ar
    11     3     4   ar
    12     7     4    1
    13     7     8    1
    14     8     9    1
    15     9    10    1
    16    10    13    1
    17    13    14   am
    18    13    15    2
    19    10    11    1
    20     4     5   ar
    21     5     6   ar
    22    23    24   ar
    23    24    25   ar
    24    25    20   ar
    25     6     1   ar
    26    11     7    1
    27    14    16    1
    28    14    17    1
    29    11    12    1
@<TRIPOS>MOLECULE
*****
 27 29 0 0 0
SMALL
GASTEIGER

@<TRIPOS>ATOM
      1 C         139.9752  138.1057  163.0885 C.ar    1  UNL1        0.1390
      2 C         141.4049  138.0923  163.5424 C.ar    1  UNL1        0.0366
      3 C         141.7592  138.5701  164.9194 C.ar    1  UNL1        0.0001
      4 C         140.6837  139.0612  165.8426 C.ar    1  UNL1       -0.0078
      5 C         139.2541  139.0746  165.3888 C.ar    1  UNL1        0.0001
      6 C         138.8999  138.5968  164.0117 C.ar    1  UNL1        0.0366
      7 C         141.0379  139.5390  167.2197 C.3     1  UNL1        0.0772
      8 C         142.3508  140.1329  167.6363 C.3     1  UNL1        0.0221
      9 C         142.2658  140.4678  169.0960 C.3     1  UNL1        0.0268
     10 C         140.9003  140.0808  169.5815 C.3     1  UNL1        0.1315
     11 N         140.1414  139.5068  168.4219 N.3     1  UNL1       -0.2890
     12 H         139.3054  140.0640  168.2454 H       1  UNL1        0.1239
     13 C         140.3842  140.2399  170.9809 C.2     1  UNL1        0.2336
     14 N         139.6020  139.1323  171.6223 N.am    1  UNL1       -0.3277
     15 O         140.6503  141.5066  171.7389 O.2     1  UNL1       -0.2739
     16 H         139.4274  138.3009  171.1248 H       1  UNL1        0.1450
     17 H         139.2633  139.2367  172.5408 H       1  UNL1        0.1450
     18 O         139.6210  137.6279  161.7115 O.3     1  UNL1       -0.4706
     19 C         139.5270  138.6069  160.5790 C.3     1  UNL1        0.2320
     20 C         139.5774  143.0280  161.4167 C.ar    1  UNL1        0.0684
     21 C         138.2705  142.2995  161.3113 C.ar    1  UNL1        0.0101
     22 C         138.2537  140.8258  161.0321 C.ar    1  UNL1       -0.0000
     23 C         139.5438  140.0806  160.8582 C.ar    1  UNL1        0.0212
     24 C         140.8507  140.8092  160.9636 C.ar    1  UNL1       -0.0000
     25 C         140.8675  142.2828  161.2429 C.ar    1  UNL1        0.0101
     26 N         139.6110  145.9754  161.9752 N.1     1  UNL1       -0.1908
     27 C         139.5942  144.5017  161.6959 C.1     1  UNL1        0.1004
@<TRIPOS>BOND
     1    26    27    3
     2    27    20    1
     3    20    21   ar
     4    21    22   ar
     5    22    23   ar
     6    23    19    1
     7    19    18    1
     8    18     1    1
     9     1     2   ar
    10     2     3   ar
    11     3     4   ar
    12     7     4    1
    13     7     8    1
    14     8     9    1
    15     9    10    1
    16    10    13    1
    17    13    14   am
    18    13    15    2
    19    10    11    1
    20     4     5   ar
    21     5     6   ar
    22    23    24   ar
    23    24    25   ar
    24    25    20   ar
    25     6     1   ar
    26    11     7    1
    27    14    16    1
    28    14    17    1
    29    11    12    1
@<TRIPOS>MOLECULE
*****
 27 29 0 0 0
SMALL
GASTEIGER

@<TRIPOS>ATOM
      1 C         140.5927  144.9450  163.7117 C.ar    1  UNL1        0.1390
      2 C         141.7784  144.0921  164.0537 C.ar    1  UNL1        0.0366
      3 C         141.6906  143.1012  165.1763 C.ar    1  UNL1        0.0001
      4 C         140.4172  142.9631  165.9569 C.ar    1  UNL1       -0.0078
      5 C         139.2316  143.8159  165.6149 C.ar    1  UNL1        0.0001
      6 C         139.3194  144.8069  164.4923 C.ar    1  UNL1        0.0366
      7 C         140.3294  141.9721  167.0796 C.3     1  UNL1        0.0772
      8 C         140.1519  140.4897  166.9352 C.3     1  UNL1        0.0221
      9 C         140.1165  139.8910  168.3101 C.3     1  UNL1        0.0268
     10 C         140.2721  141.0034  169.3042 C.3     1  UNL1        0.1315
     11 N         140.4037  142.2897  168.5438 N.3     1  UNL1       -0.2890
     12 H         141.2994  142.7283  168.7578 H       1  UNL1        0.1239
     13 C         140.2926  140.8556  170.7968 C.2     1  UNL1        0.2336
     14 N         140.0140  139.5210  171.4222 N.am    1  UNL1       -0.3277
     15 O         140.5917  142.0425  171.6639 O.2     1  UNL1       -0.2739
     16 H         139.8177  138.7420  170.8531 H       1  UNL1        0.1450
     17 H         140.0275  139.4240  172.4019 H       1  UNL1        0.1450
     18 O         140.6805  145.9359  162.5890 O.3     1  UNL1       -0.4706
     19 C         140.5166  145.4782  161.1700 C.3     1  UNL1        0.2320
     20 C         140.0018  141.1006  160.2632 C.ar    1  UNL1        0.0684
     21 C         141.3371  141.7552  160.0672 C.ar    1  UNL1        0.0101
     22 C         141.5087  143.2144  160.3695 C.ar    1  UNL1       -0.0000
     23 C         140.3450  144.0190  160.8678 C.ar    1  UNL1        0.0212
     24 C         139.0097  143.3644  161.0638 C.ar    1  UNL1       -0.0000
     25 C         138.8381  141.9053  160.7615 C.ar    1  UNL1        0.0101
     26 N         139.6586  138.1823  159.6587 N.1     1  UNL1       -0.1908
     27 C         139.8302  139.6415  159.9609 C.1     1  UNL1        0.1004
@<TRIPOS>BOND
     1    26    27    3
     2    27    20    1
     3    20    21   ar
     4    21    22   ar
     5    22    23   ar
     6    23    19    1
     7    19    18    1
     8    18     1    1
     9     1     2   ar
    10     2     3   ar
    11     3     4   ar
    12     7     4    1
    13     7     8    1
    14     8     9    1
    15     9    10    1
    16    10    13    1
    17    13    14   am
    18    13    15    2
    19    10    11    1
    20     4     5   ar
    21     5     6   ar
    22    23    24   ar
    23    24    25   ar
    24    25    20   ar
    25     6     1   ar
    26    11     7    1
    27    14    16    1
    28    14    17    1
    29    11    12    1
@<TRIPOS>MOLECULE
*****
 27 29 0 0 0
SMALL
GASTEIGER

@<TRIPOS>ATOM
      1 C         139.3459  138.6031  163.4363 C.ar    1  UNL1        0.1390
      2 C         138.3304  139.4735  164.1157 C.ar    1  UNL1        0.0366
      3 C         138.5346  139.8910  165.5419 C.ar    1  UNL1        0.0001
      4 C         139.7541  139.4381  166.2887 C.ar    1  UNL1       -0.0078
      5 C         140.7694  138.5678  165.6094 C.ar    1  UNL1        0.0001
      6 C         140.5653  138.1503  164.1832 C.ar    1  UNL1        0.0366
      7 C         139.9582  139.8556  167.7149 C.3     1  UNL1        0.0772
      8 C         138.8858  139.9983  168.7540 C.3     1  UNL1        0.0221
      9 C         139.5354  140.4345  170.0337 C.3     1  UNL1        0.0268
     10 C         141.0092  140.5614  169.7856 C.3     1  UNL1        0.1315
     11 N         141.2707  140.2036  168.3525 N.3     1  UNL1       -0.2890
     12 H         141.9015  139.4036  168.3051 H       1  UNL1        0.1239
     13 C         142.0407  140.9738  170.7936 C.2     1  UNL1        0.2336
     14 N         143.4186  140.3832  170.7413 N.am    1  UNL1       -0.3277
     15 O         141.6943  141.9767  171.8539 O.2     1  UNL1       -0.2739
     16 H         143.6460  139.7250  170.0454 H       1  UNL1        0.1450
     17 H         144.0956  140.6539  171.4029 H       1  UNL1        0.1450
     18 O         139.1417  138.1857  162.0101 O.3     1  UNL1       -0.4706
     19 C         139.7485  138.9901  160.8990 C.3     1  UNL1        0.2320
     20 C         142.4489  142.4620  161.8498 C.ar    1  UNL1        0.0684
     21 C         140.9638  142.6625  161.7862 C.ar    1  UNL1        0.0101
     22 C         140.0636  141.5052  161.4692 C.ar    1  UNL1       -0.0000
     23 C         140.6486  140.1474  161.2159 C.ar    1  UNL1        0.0212
     24 C         142.1338  139.9469  161.2796 C.ar    1  UNL1       -0.0000
     25 C         143.0339  141.1042  161.5965 C.ar    1  UNL1        0.0101
     26 N         144.2492  144.7765  162.4837 N.1     1  UNL1       -0.1908
     27 C         143.3491  143.6193  162.1667 C.1     1  UNL1        0.1004
@<TRIPOS>BOND
     1    26    27    3
     2    27    20    1
     3    20    21   ar
     4    21    22   ar
     5    22    23   ar
     6    23    19    1
     7    19    18    1
     8    18     1    1
     9     1     2   ar
    10     2     3   ar
    11     3     4   ar
    12     7     4    1
    13     7     8    1
    14     8     9    1
    15     9    10    1
    16    10    13    1
    17    13    14   am
    18    13    15    2
    19    10    11    1
    20     4     5   ar
    21     5     6   ar
    22    23    24   ar
    23    24    25   ar
    24    25    20   ar
    25     6     1   ar
    26    11     7    1
    27    14    16    1
    28    14    17    1
    29    11    12    1
