@<TRIPOS>MOLECULE
*****
 38 40 0 0 0
SMALL
GASTEIGER

@<TRIPOS>ATOM
      1 C         140.0357  141.8843  162.5164 C.2     1  UNL1        0.2486
      2 O         141.4793  141.5486  162.7471 O.2     1  UNL1       -0.2726
      3 N         139.0987  142.0060  163.6814 N.am    1  UNL1       -0.2823
      4 H         138.1512  142.2263  163.5301 H       1  UNL1        0.1549
      5 C         140.4436  145.0738  157.9016 C.ar    1  UNL1        0.1217
      6 C         141.2082  145.2344  159.1820 C.ar    1  UNL1        0.0196
      7 C         140.9723  144.2865  160.3204 C.ar    1  UNL1       -0.0011
      8 C         139.9718  143.1780  160.1782 C.ar    1  UNL1        0.0023
      9 C         139.2073  143.0174  158.8978 C.ar    1  UNL1       -0.0029
     10 C         139.4432  143.9653  157.7594 C.ar    1  UNL1        0.0170
     11 C         138.2921  141.8385  159.0491 C.3     1  UNL1        0.1211
     12 N         138.4910  141.2706  160.4230 N.am    1  UNL1       -0.2582
     13 C         137.7772  140.0833  160.9982 C.2     1  UNL1        0.3037
     14 O         136.7581  139.3506  160.1769 O.2     1  UNL1       -0.2649
     15 C         139.5292  142.0984  161.1209 C.3     1  UNL1        0.1754
     16 S         140.6795  146.0217  156.7632 S.O2    1  UNL1        0.0603
     17 O         139.2650  145.8235  156.3050 O.2     1  UNL1       -0.1530
     18 O         142.0940  146.2199  157.2214 O.2     1  UNL1       -0.1530
     19 C         139.7510  147.5991  154.9195 C.3     1  UNL1        0.1102
     20 N         140.9155  146.9696  155.6249 N.3     1  UNL1       -0.1779
     21 H         141.4858  147.7323  155.9902 H       1  UNL1        0.1488
     22 C         139.6052  141.7918  165.0769 C.ar    1  UNL1        0.0503
     23 C         139.3992  140.4698  165.7550 C.ar    1  UNL1        0.0144
     24 C         139.9057  140.2557  167.1506 C.ar    1  UNL1       -0.0002
     25 C         140.6184  141.3635  167.8681 C.ar    1  UNL1        0.0182
     26 C         140.8244  142.6856  167.1900 C.ar    1  UNL1       -0.0002
     27 C         140.3178  142.8997  165.7944 C.ar    1  UNL1        0.0144
     28 C         141.1249  141.1494  169.2636 C.3     1  UNL1        0.2827
     29 O         142.5340  141.1326  168.7495 O.3     1  UNL1       -0.3692
     30 H         142.5289  141.2595  167.7879 H       1  UNL1        0.2112
     31 C         141.6315  140.9353  170.6591 C.3     1  UNL1        0.4311
     32 F         142.1381  140.7212  172.0547 F       1  UNL1       -0.1669
     33 F         142.0852  139.5560  170.2828 F       1  UNL1       -0.1669
     34 F         141.4020  141.7283  170.9801 F       1  UNL1       -0.1669
     35 C         139.7159  141.1663  169.7777 C.3     1  UNL1        0.4311
     36 F         138.3068  141.1831  170.2917 F       1  UNL1       -0.1669
     37 F         139.5564  142.0245  169.6275 F       1  UNL1       -0.1669
     38 F         139.4710  139.7516  170.2119 F       1  UNL1       -0.1669
@<TRIPOS>BOND
     1    19    20    1
     2    20    16    1
     3    16    17    2
     4    16    18    2
     5    16     5    1
     6     5     6   ar
     7     6     7   ar
     8     7     8   ar
     9     8     9   ar
    10     9    10   ar
    11     9    11    1
    12    11    12    1
    13    12    13   am
    14    13    14    2
    15    12    15    1
    16    15     1    1
    17     1     2    2
    18     1     3   am
    19     3    22    1
    20    22    23   ar
    21    23    24   ar
    22    24    25   ar
    23    25    28    1
    24    28    29    1
    25    28    31    1
    26    31    32    1
    27    31    33    1
    28    31    34    1
    29    28    35    1
    30    35    36    1
    31    35    37    1
    32    35    38    1
    33    25    26   ar
    34    26    27   ar
    35    10     5   ar
    36    27    22   ar
    37    15     8    1
    38    20    21    1
    39     3     4    1
    40    29    30    1
@<TRIPOS>MOLECULE
*****
 38 40 0 0 0
SMALL
GASTEIGER

@<TRIPOS>ATOM
      1 C         140.3877  138.9963  161.6588 C.2     1  UNL1        0.2486
      2 O         139.8079  137.6148  161.5848 O.2     1  UNL1       -0.2726
      3 N         141.1792  139.5400  160.5065 N.am    1  UNL1       -0.2823
      4 H         141.5598  140.4467  160.5550 H       1  UNL1        0.1549
      5 C         141.9063  139.7965  167.0151 C.ar    1  UNL1        0.1217
      6 C         142.4198  138.7445  166.0773 C.ar    1  UNL1        0.0196
      7 C         141.9011  138.6751  164.6715 C.ar    1  UNL1       -0.0011
      8 C         140.8689  139.6576  164.2036 C.ar    1  UNL1        0.0023
      9 C         140.3553  140.7096  165.1414 C.ar    1  UNL1       -0.0029
     10 C         140.8740  140.7791  166.5471 C.ar    1  UNL1        0.0170
     11 C         139.3449  141.5361  164.4024 C.3     1  UNL1        0.1211
     12 N         139.2341  140.9949  163.0078 N.am    1  UNL1       -0.2582
     13 C         138.3386  141.5220  161.9260 C.2     1  UNL1        0.3037
     14 O         137.4461  142.6967  162.1973 O.2     1  UNL1       -0.2649
     15 C         140.1759  139.8339  162.8850 C.3     1  UNL1        0.1754
     16 S         142.4250  139.8660  168.4208 S.O2    1  UNL1        0.0603
     17 O         143.2700  138.6525  168.1690 O.2     1  UNL1       -0.1530
     18 O         141.5799  141.0795  168.6727 O.2     1  UNL1       -0.1530
     19 C         142.1815  140.6966  170.8705 C.3     1  UNL1        0.1102
     20 N         142.9437  139.9355  169.8266 N.3     1  UNL1       -0.1779
     21 H         143.0202  138.9746  170.1600 H       1  UNL1        0.1488
     22 C         141.3910  138.7024  159.2804 C.ar    1  UNL1        0.0503
     23 C         142.6240  137.8578  159.1527 C.ar    1  UNL1        0.0144
     24 C         142.8358  137.0202  157.9266 C.ar    1  UNL1       -0.0002
     25 C         141.8145  137.0271  156.8280 C.ar    1  UNL1        0.0182
     26 C         140.5815  137.8716  156.9556 C.ar    1  UNL1       -0.0002
     27 C         140.3697  138.7093  158.1818 C.ar    1  UNL1        0.0144
     28 C         142.0263  136.1894  155.6018 C.3     1  UNL1        0.2827
     29 O         140.6481  135.6173  155.7547 O.3     1  UNL1       -0.3692
     30 H         140.2220  136.0046  156.5352 H       1  UNL1        0.2112
     31 C         142.2380  135.3518  154.3756 C.3     1  UNL1        0.4311
     32 F         142.4498  134.5142  153.1494 F       1  UNL1       -0.1669
     33 F         142.1635  134.1088  155.2119 F       1  UNL1       -0.1669
     34 F         142.2969  136.0201  153.7972 F       1  UNL1       -0.1669
     35 C         143.4044  136.7616  155.4489 C.3     1  UNL1        0.4311
     36 F         144.7825  137.3338  155.2960 F       1  UNL1       -0.1669
     37 F         143.1566  137.5864  155.2419 F       1  UNL1       -0.1669
     38 F         144.3124  135.6028  155.7364 F       1  UNL1       -0.1669
@<TRIPOS>BOND
     1    19    20    1
     2    20    16    1
     3    16    17    2
     4    16    18    2
     5    16     5    1
     6     5     6   ar
     7     6     7   ar
     8     7     8   ar
     9     8     9   ar
    10     9    10   ar
    11     9    11    1
    12    11    12    1
    13    12    13   am
    14    13    14    2
    15    12    15    1
    16    15     1    1
    17     1     2    2
    18     1     3   am
    19     3    22    1
    20    22    23   ar
    21    23    24   ar
    22    24    25   ar
    23    25    28    1
    24    28    29    1
    25    28    31    1
    26    31    32    1
    27    31    33    1
    28    31    34    1
    29    28    35    1
    30    35    36    1
    31    35    37    1
    32    35    38    1
    33    25    26   ar
    34    26    27   ar
    35    10     5   ar
    36    27    22   ar
    37    15     8    1
    38    20    21    1
    39     3     4    1
    40    29    30    1
@<TRIPOS>MOLECULE
*****
 38 40 0 0 0
SMALL
GASTEIGER

@<TRIPOS>ATOM
      1 C         142.0099  143.8112  162.8098 C.2     1  UNL1        0.2486
      2 O         142.9105  144.6190  163.6965 O.2     1  UNL1       -0.2726
      3 N         141.2287  142.6643  163.3795 N.am    1  UNL1       -0.2823
      4 H         140.6376  142.1341  162.7975 H       1  UNL1        0.1549
      5 C         143.9212  142.6845  157.6412 C.ar    1  UNL1        0.1217
      6 C         144.3627  142.0500  158.9267 C.ar    1  UNL1        0.0196
      7 C         143.7415  142.4739  160.2245 C.ar    1  UNL1       -0.0011
      8 C         142.6786  143.5323  160.2369 C.ar    1  UNL1        0.0023
      9 C         142.2371  144.1668  158.9515 C.ar    1  UNL1       -0.0029
     10 C         142.8583  143.7429  157.6536 C.ar    1  UNL1        0.0170
     11 C         141.1758  145.1768  159.2736 C.3     1  UNL1        0.1211
     12 N         140.9616  145.1665  160.7582 N.am    1  UNL1       -0.2582
     13 C         139.9893  146.0224  161.5147 C.2     1  UNL1        0.3037
     14 O         139.1207  146.9998  160.7796 O.2     1  UNL1       -0.2649
     15 C         141.8904  144.1502  161.3535 C.3     1  UNL1        0.1754
     16 S         144.5424  142.2606  156.3434 S.O2    1  UNL1        0.0603
     17 O         143.5434  143.0913  155.5939 O.2     1  UNL1       -0.1530
     18 O         145.5414  141.4299  157.0930 O.2     1  UNL1       -0.1530
     19 C         146.5904  141.3750  155.0125 C.3     1  UNL1        0.1102
     20 N         145.1637  141.8367  155.0456 N.3     1  UNL1       -0.1779
     21 H         144.5973  141.0689  154.6849 H       1  UNL1        0.1488
     22 C         141.3483  142.3253  164.8357 C.ar    1  UNL1        0.0503
     23 C         140.4574  142.9976  165.8379 C.ar    1  UNL1        0.0144
     24 C         140.5769  142.6586  167.2942 C.ar    1  UNL1       -0.0002
     25 C         141.5872  141.6473  167.7484 C.ar    1  UNL1        0.0182
     26 C         142.4781  140.9750  166.7463 C.ar    1  UNL1       -0.0002
     27 C         142.3586  141.3140  165.2900 C.ar    1  UNL1        0.0144
     28 C         141.7068  141.3083  169.2047 C.3     1  UNL1        0.2827
     29 O         143.1030  141.8565  169.2177 O.3     1  UNL1       -0.3692
     30 H         143.3310  142.1813  168.3326 H       1  UNL1        0.2112
     31 C         141.8263  140.9693  170.6610 C.3     1  UNL1        0.4311
     32 F         141.9458  140.6303  172.1173 F       1  UNL1       -0.1669
     33 F         141.9326  142.4285  170.9919 F       1  UNL1       -0.1669
     34 F         141.7726  140.0897  170.5718 F       1  UNL1       -0.1669
     35 C         140.3106  140.7602  169.1917 C.3     1  UNL1        0.4311
     36 F         138.9144  140.2120  169.1787 F       1  UNL1       -0.1669
     37 F         140.4828  140.0374  168.7095 F       1  UNL1       -0.1669
     38 F         139.5212  141.7588  169.9851 F       1  UNL1       -0.1669
@<TRIPOS>BOND
     1    19    20    1
     2    20    16    1
     3    16    17    2
     4    16    18    2
     5    16     5    1
     6     5     6   ar
     7     6     7   ar
     8     7     8   ar
     9     8     9   ar
    10     9    10   ar
    11     9    11    1
    12    11    12    1
    13    12    13   am
    14    13    14    2
    15    12    15    1
    16    15     1    1
    17     1     2    2
    18     1     3   am
    19     3    22    1
    20    22    23   ar
    21    23    24   ar
    22    24    25   ar
    23    25    28    1
    24    28    29    1
    25    28    31    1
    26    31    32    1
    27    31    33    1
    28    31    34    1
    29    28    35    1
    30    35    36    1
    31    35    37    1
    32    35    38    1
    33    25    26   ar
    34    26    27   ar
    35    10     5   ar
    36    27    22   ar
    37    15     8    1
    38    20    21    1
    39     3     4    1
    40    29    30    1
@<TRIPOS>MOLECULE
*****
 38 40 0 0 0
SMALL
GASTEIGER

@<TRIPOS>ATOM
      1 C         141.4369  142.8207  162.6061 C.2     1  UNL1        0.2486
      2 O         140.7573  141.5028  162.8319 O.2     1  UNL1       -0.2726
      3 N         141.9159  143.6277  163.7763 N.am    1  UNL1       -0.2823
      4 H         142.3620  144.4927  163.6282 H       1  UNL1        0.1549
      5 C         144.0652  141.9495  157.7103 C.ar    1  UNL1        0.1217
      6 C         144.1637  141.1121  158.9508 C.ar    1  UNL1        0.0196
      7 C         143.3878  141.4933  160.1766 C.ar    1  UNL1       -0.0011
      8 C         142.5134  142.7120  160.1619 C.ar    1  UNL1        0.0023
      9 C         142.4149  143.5494  158.9214 C.ar    1  UNL1       -0.0029
     10 C         143.1908  143.1681  157.6955 C.ar    1  UNL1        0.0170
     11 C         141.4782  144.6867  159.2030 C.3     1  UNL1        0.1211
     12 N         140.9979  144.5522  160.6176 N.am    1  UNL1       -0.2582
     13 C         140.0450  145.4759  161.3168 C.2     1  UNL1        0.3037
     14 O         139.4833  146.6630  160.5921 O.2     1  UNL1       -0.2649
     15 C         141.6377  143.3317  161.2102 C.3     1  UNL1        0.1754
     16 S         144.8411  141.5683  156.4845 S.O2    1  UNL1        0.0603
     17 O         145.2245  140.2701  157.1308 O.2     1  UNL1       -0.1530
     18 O         144.4578  142.8664  155.8381 O.2     1  UNL1       -0.1530
     19 C         146.9798  141.7676  155.0230 C.3     1  UNL1        0.1102
     20 N         145.6170  141.1870  155.2586 N.3     1  UNL1       -0.1779
     21 H         145.7291  140.1735  155.2845 H       1  UNL1        0.1488
     22 C         141.7152  143.1167  165.1723 C.ar    1  UNL1        0.0503
     23 C         142.8521  142.4670  165.9039 C.ar    1  UNL1        0.0144
     24 C         142.6514  141.9560  167.2998 C.ar    1  UNL1       -0.0002
     25 C         141.3138  142.0946  167.9641 C.ar    1  UNL1        0.0182
     26 C         140.1768  142.7442  167.2325 C.ar    1  UNL1       -0.0002
     27 C         140.3775  143.2553  165.8366 C.ar    1  UNL1        0.0144
     28 C         141.1130  141.5836  169.3600 C.3     1  UNL1        0.2827
     29 O         141.4406  140.1944  168.8986 O.3     1  UNL1       -0.3692
     30 H         141.6336  140.2066  167.9481 H       1  UNL1        0.2112
     31 C         140.9123  141.0726  170.7559 C.3     1  UNL1        0.4311
     32 F         140.7116  140.5616  172.1518 F       1  UNL1       -0.1669
     33 F         139.6070  140.4592  170.3437 F       1  UNL1       -0.1669
     34 F         141.6629  141.3953  171.0980 F       1  UNL1       -0.1669
     35 C         140.7854  142.9727  169.8215 C.3     1  UNL1        0.4311
     36 F         140.4578  144.3619  170.2829 F       1  UNL1       -0.1669
     37 F         139.9052  142.8756  169.8400 F       1  UNL1       -0.1669
     38 F         142.1243  143.6352  169.9575 F       1  UNL1       -0.1669
@<TRIPOS>BOND
     1    19    20    1
     2    20    16    1
     3    16    17    2
     4    16    18    2
     5    16     5    1
     6     5     6   ar
     7     6     7   ar
     8     7     8   ar
     9     8     9   ar
    10     9    10   ar
    11     9    11    1
    12    11    12    1
    13    12    13   am
    14    13    14    2
    15    12    15    1
    16    15     1    1
    17     1     2    2
    18     1     3   am
    19     3    22    1
    20    22    23   ar
    21    23    24   ar
    22    24    25   ar
    23    25    28    1
    24    28    29    1
    25    28    31    1
    26    31    32    1
    27    31    33    1
    28    31    34    1
    29    28    35    1
    30    35    36    1
    31    35    37    1
    32    35    38    1
    33    25    26   ar
    34    26    27   ar
    35    10     5   ar
    36    27    22   ar
    37    15     8    1
    38    20    21    1
    39     3     4    1
    40    29    30    1
@<TRIPOS>MOLECULE
*****
 38 40 0 0 0
SMALL
GASTEIGER

@<TRIPOS>ATOM
      1 C         138.9003  142.5414  161.7765 C.2     1  UNL1        0.2486
      2 O         137.8504  143.6110  161.7171 O.2     1  UNL1       -0.2726
      3 N         139.9452  142.4558  160.7037 N.am    1  UNL1       -0.2823
      4 H         140.6343  141.7538  160.7427 H       1  UNL1        0.1549
      5 C         140.1692  141.7591  167.2000 C.ar    1  UNL1        0.1217
      6 C         140.3447  143.0175  166.4029 C.ar    1  UNL1        0.0196
      7 C         139.9504  143.0500  164.9560 C.ar    1  UNL1       -0.0011
      8 C         139.3806  141.8240  164.3062 C.ar    1  UNL1        0.0023
      9 C         139.2050  140.5656  165.1034 C.ar    1  UNL1       -0.0029
     10 C         139.5994  140.5331  166.5502 C.ar    1  UNL1        0.0170
     11 C         138.6214  139.5212  164.1985 C.3     1  UNL1        0.1211
     12 N         138.4362  140.1343  162.8421 N.am    1  UNL1       -0.2582
     13 C         137.8795  139.4452  161.6315 C.2     1  UNL1        0.3037
     14 O         137.4492  138.0108  161.7166 O.2     1  UNL1       -0.2649
     15 C         138.9054  141.5575  162.9087 C.3     1  UNL1        0.1754
     16 S         140.5635  141.7266  168.6469 S.O2    1  UNL1        0.0603
     17 O         140.3500  143.2085  168.7383 O.2     1  UNL1       -0.1530
     18 O         140.7770  140.2447  168.5554 O.2     1  UNL1       -0.1530
     19 C         141.9043  140.6415  170.5897 C.3     1  UNL1        0.1102
     20 N         140.9578  141.6942  170.0938 N.3     1  UNL1       -0.1779
     21 H         141.3851  142.5965  170.3028 H       1  UNL1        0.1488
     22 C         139.9401  143.4397  159.5715 C.ar    1  UNL1        0.0503
     23 C         140.5900  144.7810  159.7406 C.ar    1  UNL1        0.0144
     24 C         140.5849  145.7650  158.6085 C.ar    1  UNL1       -0.0002
     25 C         139.9300  145.4077  157.3072 C.ar    1  UNL1        0.0182
     26 C         139.2800  144.0664  157.1381 C.ar    1  UNL1       -0.0002
     27 C         139.2851  143.0825  158.2703 C.ar    1  UNL1        0.0144
     28 C         139.9249  146.3916  156.1750 C.3     1  UNL1        0.2827
     29 O         139.2250  147.3915  157.0471 O.3     1  UNL1       -0.3692
     30 H         139.0773  147.0071  157.9253 H       1  UNL1        0.2112
     31 C         139.9198  147.3756  155.0429 C.3     1  UNL1        0.4311
     32 F         139.9147  148.3595  153.9107 F       1  UNL1       -0.1669
     33 F         138.4205  147.3384  155.0172 F       1  UNL1       -0.1669
     34 F         140.7982  147.4682  154.9764 F       1  UNL1       -0.1669
     35 C         140.6247  145.3918  155.3030 C.3     1  UNL1        0.4311
     36 F         141.3246  144.3920  154.4309 F       1  UNL1       -0.1669
     37 F         139.9353  145.2036  154.7797 F       1  UNL1       -0.1669
     38 F         142.0189  145.3423  155.8543 F       1  UNL1       -0.1669
@<TRIPOS>BOND
     1    19    20    1
     2    20    16    1
     3    16    17    2
     4    16    18    2
     5    16     5    1
     6     5     6   ar
     7     6     7   ar
     8     7     8   ar
     9     8     9   ar
    10     9    10   ar
    11     9    11    1
    12    11    12    1
    13    12    13   am
    14    13    14    2
    15    12    15    1
    16    15     1    1
    17     1     2    2
    18     1     3   am
    19     3    22    1
    20    22    23   ar
    21    23    24   ar
    22    24    25   ar
    23    25    28    1
    24    28    29    1
    25    28    31    1
    26    31    32    1
    27    31    33    1
    28    31    34    1
    29    28    35    1
    30    35    36    1
    31    35    37    1
    32    35    38    1
    33    25    26   ar
    34    26    27   ar
    35    10     5   ar
    36    27    22   ar
    37    15     8    1
    38    20    21    1
    39     3     4    1
    40    29    30    1
@<TRIPOS>MOLECULE
*****
 38 40 0 0 0
SMALL
GASTEIGER

@<TRIPOS>ATOM
      1 C         142.3611  138.6340  159.1600 C.2     1  UNL1        0.2486
      2 O         143.0197  137.7616  160.1872 O.2     1  UNL1       -0.2726
      3 N         141.1329  139.4173  159.5177 N.am    1  UNL1       -0.2823
      4 H         140.7006  139.9899  158.8435 H       1  UNL1        0.1549
      5 C         145.6710  141.6060  155.7179 C.ar    1  UNL1        0.1217
      6 C         145.3536  141.9096  157.1522 C.ar    1  UNL1        0.0196
      7 C         144.4446  141.0025  157.9273 C.ar    1  UNL1       -0.0011
      8 C         143.8528  139.7920  157.2683 C.ar    1  UNL1        0.0023
      9 C         144.1701  139.4885  155.8340 C.ar    1  UNL1       -0.0029
     10 C         145.0792  140.3955  155.0588 C.ar    1  UNL1        0.0170
     11 C         143.4440  138.2320  155.4545 C.3     1  UNL1        0.1211
     12 N         142.6780  137.7589  156.6542 N.am    1  UNL1       -0.2582
     13 C         141.8115  136.5363  156.7213 C.2     1  UNL1        0.3037
     14 O         141.6530  135.6622  155.5126 O.2     1  UNL1       -0.2649
     15 C         142.9306  138.7231  157.7752 C.3     1  UNL1        0.1754
     16 S         146.5800  142.5131  154.9427 S.O2    1  UNL1        0.0603
     17 O         147.7167  142.1509  155.8520 O.2     1  UNL1       -0.1530
     18 O         145.4434  142.8752  154.0334 O.2     1  UNL1       -0.1530
     19 C         147.0182  144.7849  153.7610 C.3     1  UNL1        0.1102
     20 N         147.4891  143.4201  154.1675 N.3     1  UNL1       -0.1779
     21 H         148.3255  143.5542  154.7357 H       1  UNL1        0.1488
     22 C         140.5633  139.3282  160.9025 C.ar    1  UNL1        0.0503
     23 C         139.5591  138.2643  161.2334 C.ar    1  UNL1        0.0144
     24 C         138.9896  138.1752  162.6182 C.ar    1  UNL1       -0.0002
     25 C         139.4242  139.1499  163.6721 C.ar    1  UNL1        0.0182
     26 C         140.4284  140.2139  163.3412 C.ar    1  UNL1       -0.0002
     27 C         140.9980  140.3030  161.9564 C.ar    1  UNL1        0.0144
     28 C         138.8547  139.0608  165.0569 C.3     1  UNL1        0.2827
     29 O         139.4544  137.6952  165.2157 O.3     1  UNL1       -0.3692
     30 H         139.9310  137.4551  164.4056 H       1  UNL1        0.2112
     31 C         138.2851  138.9717  166.4417 C.3     1  UNL1        0.4311
     32 F         137.7156  138.8826  167.8265 F       1  UNL1       -0.1669
     33 F         139.6538  139.1825  167.0181 F       1  UNL1       -0.1669
     34 F         137.4419  138.8418  166.2035 F       1  UNL1       -0.1669
     35 C         138.2549  140.4265  164.8981 C.3     1  UNL1        0.4311
     36 F         137.6551  141.7921  164.7393 F       1  UNL1       -0.1669
     37 F         137.6648  140.2133  164.2728 F       1  UNL1       -0.1669
     38 F         139.0150  141.2727  165.8758 F       1  UNL1       -0.1669
@<TRIPOS>BOND
     1    19    20    1
     2    20    16    1
     3    16    17    2
     4    16    18    2
     5    16     5    1
     6     5     6   ar
     7     6     7   ar
     8     7     8   ar
     9     8     9   ar
    10     9    10   ar
    11     9    11    1
    12    11    12    1
    13    12    13   am
    14    13    14    2
    15    12    15    1
    16    15     1    1
    17     1     2    2
    18     1     3   am
    19     3    22    1
    20    22    23   ar
    21    23    24   ar
    22    24    25   ar
    23    25    28    1
    24    28    29    1
    25    28    31    1
    26    31    32    1
    27    31    33    1
    28    31    34    1
    29    28    35    1
    30    35    36    1
    31    35    37    1
    32    35    38    1
    33    25    26   ar
    34    26    27   ar
    35    10     5   ar
    36    27    22   ar
    37    15     8    1
    38    20    21    1
    39     3     4    1
    40    29    30    1
@<TRIPOS>MOLECULE
*****
 38 40 0 0 0
SMALL
GASTEIGER

@<TRIPOS>ATOM
      1 C         141.7933  140.8180  161.9703 C.2     1  UNL1        0.2486
      2 O         140.4888  140.2101  162.3930 O.2     1  UNL1       -0.2726
      3 N         142.7716  141.2888  163.0054 N.am    1  UNL1       -0.2823
      4 H         143.6278  141.6877  162.7280 H       1  UNL1        0.1549
      5 C         143.0028  138.0354  157.2343 C.ar    1  UNL1        0.1217
      6 C         142.7223  137.4439  158.5838 C.ar    1  UNL1        0.0196
      7 C         142.4155  138.3405  159.7466 C.ar    1  UNL1       -0.0011
      8 C         142.3891  139.8285  159.5598 C.ar    1  UNL1        0.0023
      9 C         142.6696  140.4200  158.2102 C.ar    1  UNL1       -0.0029
     10 C         142.9765  139.5234  157.0475 C.ar    1  UNL1        0.0170
     11 C         142.5734  141.9123  158.3290 C.3     1  UNL1        0.1211
     12 N         142.2334  142.2429  159.7520 N.am    1  UNL1       -0.2582
     13 C         142.0410  143.6198  160.3155 C.2     1  UNL1        0.3037
     14 O         142.1877  144.8204  159.4285 O.2     1  UNL1       -0.2649
     15 C         142.1195  140.9551  160.5127 C.3     1  UNL1        0.1754
     16 S         143.3097  137.1388  156.0715 S.O2    1  UNL1        0.0603
     17 O         144.5126  137.9734  155.7454 O.2     1  UNL1       -0.1530
     18 O         142.1067  136.3042  156.3976 O.2     1  UNL1       -0.1530
     19 C         142.8708  134.9519  154.7394 C.3     1  UNL1        0.1102
     20 N         143.6165  136.2423  154.9087 N.3     1  UNL1       -0.1779
     21 H         143.4534  136.7897  154.0637 H       1  UNL1        0.1488
     22 C         142.4454  141.1516  164.4630 C.ar    1  UNL1        0.0503
     23 C         142.9740  139.9847  165.2433 C.ar    1  UNL1        0.0144
     24 C         142.6478  139.8476  166.7010 C.ar    1  UNL1       -0.0002
     25 C         141.7930  140.8773  167.3784 C.ar    1  UNL1        0.0182
     26 C         141.2644  142.0442  166.5981 C.ar    1  UNL1       -0.0002
     27 C         141.5906  142.1813  165.1404 C.ar    1  UNL1        0.0144
     28 C         141.4667  140.7401  168.8361 C.3     1  UNL1        0.2827
     29 O         140.1707  140.0724  168.4832 O.3     1  UNL1       -0.3692
     30 H         140.0903  140.0121  167.5184 H       1  UNL1        0.2112
     31 C         141.1405  140.6030  170.2937 C.3     1  UNL1        0.4311
     32 F         140.8143  140.4659  171.7514 F       1  UNL1       -0.1669
     33 F         141.3702  139.1233  170.2059 F       1  UNL1       -0.1669
     34 F         140.9824  141.4604  170.4501 F       1  UNL1       -0.1669
     35 C         142.7628  141.4078  169.1889 C.3     1  UNL1        0.4311
     36 F         144.0588  142.0755  169.5418 F       1  UNL1       -0.1669
     37 F         143.2225  140.6695  169.3565 F       1  UNL1       -0.1669
     38 F         142.4697  142.8713  169.0390 F       1  UNL1       -0.1669
@<TRIPOS>BOND
     1    19    20    1
     2    20    16    1
     3    16    17    2
     4    16    18    2
     5    16     5    1
     6     5     6   ar
     7     6     7   ar
     8     7     8   ar
     9     8     9   ar
    10     9    10   ar
    11     9    11    1
    12    11    12    1
    13    12    13   am
    14    13    14    2
    15    12    15    1
    16    15     1    1
    17     1     2    2
    18     1     3   am
    19     3    22    1
    20    22    23   ar
    21    23    24   ar
    22    24    25   ar
    23    25    28    1
    24    28    29    1
    25    28    31    1
    26    31    32    1
    27    31    33    1
    28    31    34    1
    29    28    35    1
    30    35    36    1
    31    35    37    1
    32    35    38    1
    33    25    26   ar
    34    26    27   ar
    35    10     5   ar
    36    27    22   ar
    37    15     8    1
    38    20    21    1
    39     3     4    1
    40    29    30    1
@<TRIPOS>MOLECULE
*****
 38 40 0 0 0
SMALL
GASTEIGER

@<TRIPOS>ATOM
      1 C         142.3945  142.9010  161.7136 C.2     1  UNL1        0.2486
      2 O         143.2182  143.9595  162.3852 O.2     1  UNL1       -0.2726
      3 N         141.6557  141.8895  162.5390 N.am    1  UNL1       -0.2823
      4 H         141.1151  141.1947  162.0982 H       1  UNL1        0.1549
      5 C         140.4714  145.5149  157.1196 C.ar    1  UNL1        0.1217
      6 C         140.3129  145.9567  158.5443 C.ar    1  UNL1        0.0196
      7 C         140.8940  145.1321  159.6543 C.ar    1  UNL1       -0.0011
      8 C         141.6335  143.8656  159.3398 C.ar    1  UNL1        0.0023
      9 C         141.7920  143.4238  157.9152 C.ar    1  UNL1       -0.0029
     10 C         141.2109  144.2484  156.8051 C.ar    1  UNL1        0.0170
     11 C         142.5662  142.1389  157.9117 C.3     1  UNL1        0.1211
     12 N         142.8861  141.7867  159.3342 N.am    1  UNL1       -0.2582
     13 C         143.6486  140.5793  159.7935 C.2     1  UNL1        0.3037
     14 O         144.1671  139.5930  158.7893 O.2     1  UNL1       -0.2649
     15 C         142.3097  142.8538  160.2168 C.3     1  UNL1        0.1754
     16 S         139.8903  146.3396  156.0096 S.O2    1  UNL1        0.0603
     17 O         139.2614  147.2543  157.0183 O.2     1  UNL1       -0.1530
     18 O         140.5193  145.4249  155.0008 O.2     1  UNL1       -0.1530
     19 C         140.2107  147.9760  154.0172 C.3     1  UNL1        0.1102
     20 N         139.3093  147.1643  154.8995 N.3     1  UNL1       -0.1779
     21 H         138.8014  146.5226  154.2907 H       1  UNL1        0.1488
     22 C         141.7406  141.9366  164.0358 C.ar    1  UNL1        0.0503
     23 C         140.7222  142.7091  164.8208 C.ar    1  UNL1        0.0144
     24 C         140.8070  142.7562  166.3177 C.ar    1  UNL1       -0.0002
     25 C         141.9103  142.0310  167.0296 C.ar    1  UNL1        0.0182
     26 C         142.9287  141.2585  166.2446 C.ar    1  UNL1       -0.0002
     27 C         142.8438  141.2114  164.7477 C.ar    1  UNL1        0.0144
     28 C         141.9951  142.0781  168.5264 C.3     1  UNL1        0.2827
     29 O         143.3505  142.7134  168.4296 O.3     1  UNL1       -0.3692
     30 H         143.5909  142.8216  167.4961 H       1  UNL1        0.2112
     31 C         142.0800  142.1252  170.0233 C.3     1  UNL1        0.4311
     32 F         142.1648  142.1724  171.5201 F       1  UNL1       -0.1669
     33 F         141.9094  143.6150  169.9860 F       1  UNL1       -0.1669
     34 F         142.1861  141.2554  170.1528 F       1  UNL1       -0.1669
     35 C         140.6398  141.4428  168.6233 C.3     1  UNL1        0.4311
     36 F         139.2844  140.8074  168.7201 F       1  UNL1       -0.1669
     37 F         140.2022  142.1628  168.8963 F       1  UNL1       -0.1669
     38 F         140.8747  140.0212  168.2062 F       1  UNL1       -0.1669
@<TRIPOS>BOND
     1    19    20    1
     2    20    16    1
     3    16    17    2
     4    16    18    2
     5    16     5    1
     6     5     6   ar
     7     6     7   ar
     8     7     8   ar
     9     8     9   ar
    10     9    10   ar
    11     9    11    1
    12    11    12    1
    13    12    13   am
    14    13    14    2
    15    12    15    1
    16    15     1    1
    17     1     2    2
    18     1     3   am
    19     3    22    1
    20    22    23   ar
    21    23    24   ar
    22    24    25   ar
    23    25    28    1
    24    28    29    1
    25    28    31    1
    26    31    32    1
    27    31    33    1
    28    31    34    1
    29    28    35    1
    30    35    36    1
    31    35    37    1
    32    35    38    1
    33    25    26   ar
    34    26    27   ar
    35    10     5   ar
    36    27    22   ar
    37    15     8    1
    38    20    21    1
    39     3     4    1
    40    29    30    1
@<TRIPOS>MOLECULE
*****
 38 40 0 0 0
SMALL
GASTEIGER

@<TRIPOS>ATOM
      1 C         141.8214  141.3485  161.9083 C.2     1  UNL1        0.2486
      2 O         143.0723  141.2586  162.7312 O.2     1  UNL1       -0.2726
      3 N         140.4801  141.2077  162.5649 N.am    1  UNL1       -0.2823
      4 H         139.6591  141.2667  162.0249 H       1  UNL1        0.1549
      5 C         140.9563  145.0428  157.7562 C.ar    1  UNL1        0.1217
      6 C         140.7060  145.2530  159.2201 C.ar    1  UNL1        0.0196
      7 C         140.9950  144.1513  160.1963 C.ar    1  UNL1       -0.0011
      8 C         141.5343  142.8394  159.7085 C.ar    1  UNL1        0.0023
      9 C         141.7846  142.6292  158.2445 C.ar    1  UNL1       -0.0029
     10 C         141.4956  143.7309  157.2684 C.ar    1  UNL1        0.0170
     11 C         142.3168  141.2389  158.0602 C.3     1  UNL1        0.1211
     12 N         142.3953  140.5899  159.4103 N.am    1  UNL1       -0.2582
     13 C         142.8736  139.1964  159.6922 C.2     1  UNL1        0.3037
     14 O         143.3295  138.3175  158.5654 O.2     1  UNL1       -0.2649
     15 C         141.9117  141.5791  160.4289 C.3     1  UNL1        0.1754
     16 S         140.6673  146.1445  156.7801 S.O2    1  UNL1        0.0603
     17 O         141.6759  145.5681  155.8311 O.2     1  UNL1       -0.1530
     18 O         139.6588  146.7208  157.7292 O.2     1  UNL1       -0.1530
     19 C         140.4272  146.9739  154.3298 C.3     1  UNL1        0.1102
     20 N         140.3783  147.2461  155.8040 N.3     1  UNL1       -0.1779
     21 H         139.4380  147.5831  156.0102 H       1  UNL1        0.1488
     22 C         140.3898  140.9771  164.0443 C.ar    1  UNL1        0.0503
     23 C         140.3333  139.5784  164.5833 C.ar    1  UNL1        0.0144
     24 C         140.2430  139.3477  166.0627 C.ar    1  UNL1       -0.0002
     25 C         140.2092  140.5157  167.0032 C.ar    1  UNL1        0.0182
     26 C         140.2657  141.9144  166.4643 C.ar    1  UNL1       -0.0002
     27 C         140.3560  142.1451  164.9849 C.ar    1  UNL1        0.0144
     28 C         140.1189  140.2851  168.4826 C.3     1  UNL1        0.2827
     29 O         138.8447  139.5186  168.2853 O.3     1  UNL1       -0.3692
     30 H         138.6251  139.4940  167.3408 H       1  UNL1        0.2112
     31 C         140.0286  140.0544  169.9620 C.3     1  UNL1        0.4311
     32 F         139.9382  139.8238  171.4414 F       1  UNL1       -0.1669
     33 F         138.7871  140.8944  170.0172 F       1  UNL1       -0.1669
     34 F         140.7497  139.5455  170.0361 F       1  UNL1       -0.1669
     35 C         141.3930  141.0516  168.6799 C.3     1  UNL1        0.4311
     36 F         142.6672  141.8181  168.8772 F       1  UNL1       -0.1669
     37 F         141.0306  141.7703  169.0496 F       1  UNL1       -0.1669
     38 F         142.4533  140.1387  168.1391 F       1  UNL1       -0.1669
@<TRIPOS>BOND
     1    19    20    1
     2    20    16    1
     3    16    17    2
     4    16    18    2
     5    16     5    1
     6     5     6   ar
     7     6     7   ar
     8     7     8   ar
     9     8     9   ar
    10     9    10   ar
    11     9    11    1
    12    11    12    1
    13    12    13   am
    14    13    14    2
    15    12    15    1
    16    15     1    1
    17     1     2    2
    18     1     3   am
    19     3    22    1
    20    22    23   ar
    21    23    24   ar
    22    24    25   ar
    23    25    28    1
    24    28    29    1
    25    28    31    1
    26    31    32    1
    27    31    33    1
    28    31    34    1
    29    28    35    1
    30    35    36    1
    31    35    37    1
    32    35    38    1
    33    25    26   ar
    34    26    27   ar
    35    10     5   ar
    36    27    22   ar
    37    15     8    1
    38    20    21    1
    39     3     4    1
    40    29    30    1
