@<TRIPOS>MOLECULE
*****
 35 37 0 0 0
SMALL
GASTEIGER

@<TRIPOS>ATOM
      1 C         141.0090  140.5648  168.5802 C.ar    1  UNL1        0.0764
      2 C         140.0790  140.0710  167.5119 C.ar    1  UNL1        0.0522
      3 C         138.7096  139.5801  167.8777 C.ar    1  UNL1        0.1515
      4 N         138.2702  139.5830  169.3119 N.ar    1  UNL1       -0.1329
      5 N         139.2002  140.0767  170.3803 N.ar    1  UNL1       -0.1409
      6 C         140.5696  140.5677  170.0144 C.ar    1  UNL1        0.1691
      7 C         141.4995  141.0614  171.0828 C.2     1  UNL1        0.2635
      8 N         142.7220  140.2682  171.4384 N.am    1  UNL1       -0.3240
      9 O         141.2070  142.3484  171.7955 O.2     1  UNL1       -0.2686
     10 H         142.9139  139.4235  170.9705 H       1  UNL1        0.1453
     11 H         143.3323  140.5923  172.1396 H       1  UNL1        0.1453
     12 N         142.3783  141.0557  168.2144 N.pl3   1  UNL1       -0.2965
     13 H         143.0534  141.1999  168.9163 H       1  UNL1        0.1537
     14 C         143.4008  141.8694  163.9083 C.ar    1  UNL1        0.1522
     15 C         143.6738  140.5191  164.5017 C.ar    1  UNL1        0.0410
     16 C         143.3329  140.2479  165.9371 C.ar    1  UNL1        0.0375
     17 C         142.7192  141.3269  166.7790 C.ar    1  UNL1        0.1320
     18 N         142.4462  142.6772  166.1856 N.ar    1  UNL1       -0.2319
     19 C         142.7870  142.9485  164.7502 C.ar    1  UNL1        0.0938
     20 C         142.5141  144.2988  164.1568 C.3     1  UNL1        0.0434
     21 C         141.1079  144.7016  163.8243 C.3     1  UNL1        0.0064
     22 C         143.6472  145.2464  163.8959 C.3     1  UNL1        0.0064
     23 C         145.1642  142.0406  162.0080 C.3     1  UNL1        0.2525
     24 O         143.7416  142.1407  162.4729 O.3     1  UNL1       -0.4702
     25 N         137.7796  139.0863  166.8094 N.pl3   1  UNL1       -0.3170
     26 H         136.8375  138.8989  167.0250 H       1  UNL1        0.1482
     27 C         138.2851  138.8782  165.4126 C.3     1  UNL1        0.0845
     28 C         138.9140  137.5713  165.0295 C.3     1  UNL1        0.0209
     29 C         139.4195  137.3632  163.6326 C.3     1  UNL1        0.0018
     30 C         139.2961  138.4619  162.6189 C.3     1  UNL1        0.0015
     31 C         138.6672  139.7687  163.0020 C.3     1  UNL1        0.0172
     32 C         138.1617  139.9768  164.3988 C.3     1  UNL1        0.0689
     33 N         137.5329  141.2836  164.7819 N.3     1  UNL1       -0.3209
     34 H         137.2489  141.2502  165.7610 H       1  UNL1        0.1189
     35 H         136.7149  141.4519  164.1962 H       1  UNL1        0.1189
@<TRIPOS>BOND
     1    23    24    1
     2    24    14    1
     3    14    15   ar
     4    15    16   ar
     5    16    17   ar
     6    17    12    1
     7    12     1    1
     8     1     2   ar
     9     2     3   ar
    10     3    25    1
    11    27    25    1
    12    27    28    1
    13    28    29    1
    14    29    30    1
    15    30    31    1
    16    31    32    1
    17    32    33    1
    18     3     4   ar
    19     4     5   ar
    20     5     6   ar
    21     6     7    1
    22     7     8   am
    23     7     9    2
    24    17    18   ar
    25    18    19   ar
    26    19    20    1
    27    20    21    1
    28    20    22    1
    29    19    14   ar
    30     6     1   ar
    31    32    27    1
    32    12    13    1
    33    25    26    1
    34    33    34    1
    35    33    35    1
    36     8    10    1
    37     8    11    1
@<TRIPOS>MOLECULE
*****
 35 37 0 0 0
SMALL
GASTEIGER

@<TRIPOS>ATOM
      1 C         141.6646  139.7267  167.1077 C.ar    1  UNL1        0.0764
      2 C         140.5335  139.7053  166.1227 C.ar    1  UNL1        0.0522
      3 C         139.1149  139.6890  166.6098 C.ar    1  UNL1        0.1515
      4 N         138.8273  139.6941  168.0819 N.ar    1  UNL1       -0.1329
      5 N         139.9583  139.7155  169.0670 N.ar    1  UNL1       -0.1409
      6 C         141.3770  139.7318  168.5799 C.ar    1  UNL1        0.1691
      7 C         142.5080  139.7531  169.5649 C.2     1  UNL1        0.2635
      8 N         142.8357  138.5224  170.3574 N.am    1  UNL1       -0.3240
      9 O         143.3112  141.0052  169.7575 O.2     1  UNL1       -0.2686
     10 H         142.3085  137.7007  170.2310 H       1  UNL1        0.1453
     11 H         143.5780  138.5365  171.0040 H       1  UNL1        0.1453
     12 N         143.0832  139.7430  166.6206 N.pl3   1  UNL1       -0.2965
     13 H         143.7768  139.2426  167.1082 H       1  UNL1        0.1537
     14 C         144.1685  142.0790  162.9308 C.ar    1  UNL1        0.1522
     15 C         144.6703  140.6763  163.1050 C.ar    1  UNL1        0.0410
     16 C         144.3085  139.8976  164.3349 C.ar    1  UNL1        0.0375
     17 C         143.4449  140.5216  165.3907 C.ar    1  UNL1        0.1320
     18 N         142.9431  141.9244  165.2165 N.ar    1  UNL1       -0.2319
     19 C         143.3048  142.7031  163.9865 C.ar    1  UNL1        0.0938
     20 C         142.8029  144.1059  163.8123 C.3     1  UNL1        0.0434
     21 C         143.7221  145.2666  164.0530 C.3     1  UNL1        0.0064
     22 C         141.3819  144.3480  163.3975 C.3     1  UNL1        0.0064
     23 C         143.6828  142.7489  160.4680 C.3     1  UNL1        0.2525
     24 O         144.5302  142.8577  161.7008 O.3     1  UNL1       -0.4702
     25 N         137.9838  139.6677  165.6247 N.pl3   1  UNL1       -0.3170
     26 H         137.2237  139.0571  165.7612 H       1  UNL1        0.1482
     27 C         138.0110  140.5766  164.4318 C.3     1  UNL1        0.0845
     28 C         137.8558  142.0575  164.6135 C.3     1  UNL1        0.0209
     29 C         137.8829  142.9664  163.4206 C.3     1  UNL1        0.0018
     30 C         138.0653  142.3945  162.0459 C.3     1  UNL1        0.0015
     31 C         138.2205  140.9136  161.8642 C.3     1  UNL1        0.0172
     32 C         138.1933  140.0047  163.0571 C.3     1  UNL1        0.0689
     33 N         138.3486  138.5239  162.8755 N.3     1  UNL1       -0.3209
     34 H         138.3062  138.0635  163.7847 H       1  UNL1        0.1189
     35 H         139.2481  138.3276  162.4366 H       1  UNL1        0.1189
@<TRIPOS>BOND
     1    23    24    1
     2    24    14    1
     3    14    15   ar
     4    15    16   ar
     5    16    17   ar
     6    17    12    1
     7    12     1    1
     8     1     2   ar
     9     2     3   ar
    10     3    25    1
    11    27    25    1
    12    27    28    1
    13    28    29    1
    14    29    30    1
    15    30    31    1
    16    31    32    1
    17    32    33    1
    18     3     4   ar
    19     4     5   ar
    20     5     6   ar
    21     6     7    1
    22     7     8   am
    23     7     9    2
    24    17    18   ar
    25    18    19   ar
    26    19    20    1
    27    20    21    1
    28    20    22    1
    29    19    14   ar
    30     6     1   ar
    31    32    27    1
    32    12    13    1
    33    25    26    1
    34    33    34    1
    35    33    35    1
    36     8    10    1
    37     8    11    1
@<TRIPOS>MOLECULE
*****
 35 37 0 0 0
SMALL
GASTEIGER

@<TRIPOS>ATOM
      1 C         140.0706  139.8329  166.9367 C.ar    1  UNL1        0.0764
      2 C         139.8926  139.0823  165.6501 C.ar    1  UNL1        0.0522
      3 C         138.7028  138.1884  165.4618 C.ar    1  UNL1        0.1515
      4 N         137.6911  138.0451  166.5599 N.ar    1  UNL1       -0.1329
      5 N         137.8691  138.7956  167.8464 N.ar    1  UNL1       -0.1409
      6 C         139.0589  139.6895  168.0348 C.ar    1  UNL1        0.1691
      7 C         139.2368  140.4400  169.3212 C.2     1  UNL1        0.2635
      8 N         138.7659  139.8383  170.6120 N.am    1  UNL1       -0.3240
      9 O         139.8858  141.7924  169.3169 O.2     1  UNL1       -0.2686
     10 H         138.3399  138.9507  170.6148 H       1  UNL1        0.1453
     11 H         138.8827  140.3309  171.4563 H       1  UNL1        0.1453
     12 N         141.2603  140.7268  167.1250 N.pl3   1  UNL1       -0.2965
     13 H         141.6957  140.7877  168.0059 H       1  UNL1        0.1537
     14 C         142.8394  143.1300  163.6636 C.ar    1  UNL1        0.1522
     15 C         141.7035  143.6593  164.4880 C.ar    1  UNL1        0.0410
     16 C         141.1772  142.8582  165.6418 C.ar    1  UNL1        0.0375
     17 C         141.7867  141.5279  165.9712 C.ar    1  UNL1        0.1320
     18 N         142.9225  140.9986  165.1469 N.ar    1  UNL1       -0.2319
     19 C         143.4489  141.7997  163.9931 C.ar    1  UNL1        0.0938
     20 C         144.5848  141.2703  163.1687 C.3     1  UNL1        0.0434
     21 C         144.3130  140.3233  162.0377 C.3     1  UNL1        0.0064
     22 C         145.9925  141.6880  163.4754 C.3     1  UNL1        0.0064
     23 C         142.7588  143.7720  161.1474 C.3     1  UNL1        0.2525
     24 O         143.3658  143.9311  162.5099 O.3     1  UNL1       -0.4702
     25 N         138.5248  137.4379  164.1753 N.pl3   1  UNL1       -0.3170
     26 H         138.1600  136.5235  164.1853 H       1  UNL1        0.1482
     27 C         138.9026  138.0805  162.8736 C.3     1  UNL1        0.0845
     28 C         137.9391  139.0004  162.1839 C.3     1  UNL1        0.0209
     29 C         138.3169  139.6430  160.8822 C.3     1  UNL1        0.0018
     30 C         139.6581  139.3657  160.2703 C.3     1  UNL1        0.0015
     31 C         140.6215  138.4459  160.9601 C.3     1  UNL1        0.0172
     32 C         140.2437  137.8033  162.2617 C.3     1  UNL1        0.0689
     33 N         141.2071  136.8834  162.9515 N.3     1  UNL1       -0.3209
     34 H         140.7892  136.5397  163.8161 H       1  UNL1        0.1189
     35 H         142.0659  137.3899  163.1668 H       1  UNL1        0.1189
@<TRIPOS>BOND
     1    23    24    1
     2    24    14    1
     3    14    15   ar
     4    15    16   ar
     5    16    17   ar
     6    17    12    1
     7    12     1    1
     8     1     2   ar
     9     2     3   ar
    10     3    25    1
    11    27    25    1
    12    27    28    1
    13    28    29    1
    14    29    30    1
    15    30    31    1
    16    31    32    1
    17    32    33    1
    18     3     4   ar
    19     4     5   ar
    20     5     6   ar
    21     6     7    1
    22     7     8   am
    23     7     9    2
    24    17    18   ar
    25    18    19   ar
    26    19    20    1
    27    20    21    1
    28    20    22    1
    29    19    14   ar
    30     6     1   ar
    31    32    27    1
    32    12    13    1
    33    25    26    1
    34    33    34    1
    35    33    35    1
    36     8    10    1
    37     8    11    1
@<TRIPOS>MOLECULE
*****
 35 37 0 0 0
SMALL
GASTEIGER

@<TRIPOS>ATOM
      1 C         141.7594  140.5637  167.5301 C.ar    1  UNL1        0.0764
      2 C         140.5780  140.2372  166.6653 C.ar    1  UNL1        0.0522
      3 C         139.3064  139.7424  167.2884 C.ar    1  UNL1        0.1515
      4 N         139.2162  139.5739  168.7761 N.ar    1  UNL1       -0.1329
      5 N         140.3975  139.9004  169.6409 N.ar    1  UNL1       -0.1409
      6 C         141.6692  140.3953  169.0179 C.ar    1  UNL1        0.1691
      7 C         142.8505  140.7217  169.8826 C.2     1  UNL1        0.2635
      8 N         143.2730  139.7727  170.9647 N.am    1  UNL1       -0.3240
      9 O         143.6093  141.9972  169.6653 O.2     1  UNL1       -0.2686
     10 H         142.7749  138.9356  171.1073 H       1  UNL1        0.1453
     11 H         144.0483  139.9870  171.5323 H       1  UNL1        0.1453
     12 N         143.0309  141.0586  166.9071 N.pl3   1  UNL1       -0.2965
     13 H         143.6651  141.5913  167.4394 H       1  UNL1        0.1537
     14 C         143.9470  140.1085  162.6050 C.ar    1  UNL1        0.1522
     15 C         144.4718  139.2237  163.6966 C.ar    1  UNL1        0.0410
     16 C         144.1664  139.5404  165.1307 C.ar    1  UNL1        0.0375
     17 C         143.3363  140.7419  165.4730 C.ar    1  UNL1        0.1320
     18 N         142.8116  141.6267  164.3814 N.ar    1  UNL1       -0.2319
     19 C         143.1169  141.3100  162.9474 C.ar    1  UNL1        0.0938
     20 C         142.5921  142.1949  161.8557 C.3     1  UNL1        0.0434
     21 C         141.2935  141.8645  161.1817 C.3     1  UNL1        0.0064
     22 C         143.3660  143.4100  161.4381 C.3     1  UNL1        0.0064
     23 C         143.6084  138.6090  160.5105 C.3     1  UNL1        0.2525
     24 O         144.2524  139.7918  161.1709 O.3     1  UNL1       -0.4702
     25 N         138.1250  139.4159  166.4236 N.pl3   1  UNL1       -0.3170
     26 H         137.2266  139.3518  166.8212 H       1  UNL1        0.1482
     27 C         138.3124  139.1871  164.9530 C.3     1  UNL1        0.0845
     28 C         138.8228  137.8661  164.4585 C.3     1  UNL1        0.0209
     29 C         139.0102  137.6374  162.9880 C.3     1  UNL1        0.0018
     30 C         138.6871  138.7297  162.0119 C.3     1  UNL1        0.0015
     31 C         138.1767  140.0506  162.5064 C.3     1  UNL1        0.0172
     32 C         137.9893  140.2793  163.9770 C.3     1  UNL1        0.0689
     33 N         137.4789  141.6002  164.4715 N.3     1  UNL1       -0.3209
     34 H         137.4134  141.5800  165.4892 H       1  UNL1        0.1189
     35 H         136.5561  141.7782  164.0749 H       1  UNL1        0.1189
@<TRIPOS>BOND
     1    23    24    1
     2    24    14    1
     3    14    15   ar
     4    15    16   ar
     5    16    17   ar
     6    17    12    1
     7    12     1    1
     8     1     2   ar
     9     2     3   ar
    10     3    25    1
    11    27    25    1
    12    27    28    1
    13    28    29    1
    14    29    30    1
    15    30    31    1
    16    31    32    1
    17    32    33    1
    18     3     4   ar
    19     4     5   ar
    20     5     6   ar
    21     6     7    1
    22     7     8   am
    23     7     9    2
    24    17    18   ar
    25    18    19   ar
    26    19    20    1
    27    20    21    1
    28    20    22    1
    29    19    14   ar
    30     6     1   ar
    31    32    27    1
    32    12    13    1
    33    25    26    1
    34    33    34    1
    35    33    35    1
    36     8    10    1
    37     8    11    1
@<TRIPOS>MOLECULE
*****
 35 37 0 0 0
SMALL
GASTEIGER

@<TRIPOS>ATOM
      1 C         140.3324  141.5914  167.7874 C.ar    1  UNL1        0.0764
      2 C         139.8547  140.5556  166.8132 C.ar    1  UNL1        0.0522
      3 C         138.9241  139.4707  167.2682 C.ar    1  UNL1        0.1515
      4 N         138.4711  139.4217  168.6973 N.ar    1  UNL1       -0.1329
      5 N         138.9486  140.4575  169.6714 N.ar    1  UNL1       -0.1409
      6 C         139.8793  141.5424  169.2165 C.ar    1  UNL1        0.1691
      7 C         140.3569  142.5782  170.1906 C.2     1  UNL1        0.2635
      8 N         141.1017  142.1609  171.4240 N.am    1  UNL1       -0.3240
      9 O         140.0897  144.0312  169.9314 O.2     1  UNL1       -0.2686
     10 H         141.2770  141.2072  171.5941 H       1  UNL1        0.1453
     11 H         141.4151  142.8408  172.0634 H       1  UNL1        0.1453
     12 N         141.2630  142.6763  167.3324 N.pl3   1  UNL1       -0.2965
     13 H         141.5624  143.3663  167.9675 H       1  UNL1        0.1537
     14 C         142.6862  142.7766  163.0646 C.ar    1  UNL1        0.1522
     15 C         141.5271  143.6290  163.4889 C.ar    1  UNL1        0.0410
     16 C         141.0528  143.5955  164.9115 C.ar    1  UNL1        0.0375
     17 C         141.7374  142.7097  165.9098 C.ar    1  UNL1        0.1320
     18 N         142.8964  141.8574  165.4855 N.ar    1  UNL1       -0.2319
     19 C         143.3708  141.8908  164.0629 C.ar    1  UNL1        0.0938
     20 C         144.5299  141.0384  163.6385 C.3     1  UNL1        0.0434
     21 C         145.9203  141.6010  163.6551 C.3     1  UNL1        0.0064
     22 C         144.2986  139.6235  163.1976 C.3     1  UNL1        0.0064
     23 C         142.4195  143.6242  160.6232 C.3     1  UNL1        0.2525
     24 O         143.1606  142.8101  161.6420 O.3     1  UNL1       -0.4702
     25 N         138.4465  138.4349  166.2940 N.pl3   1  UNL1       -0.3170
     26 H         137.6961  137.8438  166.5324 H       1  UNL1        0.1482
     27 C         139.1122  138.2996  164.9566 C.3     1  UNL1        0.0845
     28 C         140.2211  137.3072  164.7678 C.3     1  UNL1        0.0209
     29 C         140.8868  137.1719  163.4304 C.3     1  UNL1        0.0018
     30 C         140.4436  138.0290  162.2819 C.3     1  UNL1        0.0015
     31 C         139.3348  139.0214  162.4708 C.3     1  UNL1        0.0172
     32 C         138.6691  139.1567  163.8082 C.3     1  UNL1        0.0689
     33 N         137.5603  140.1490  163.9970 N.3     1  UNL1       -0.3209
     34 H         137.2266  140.1068  164.9600 H       1  UNL1        0.1189
     35 H         136.7938  139.9275  163.3616 H       1  UNL1        0.1189
@<TRIPOS>BOND
     1    23    24    1
     2    24    14    1
     3    14    15   ar
     4    15    16   ar
     5    16    17   ar
     6    17    12    1
     7    12     1    1
     8     1     2   ar
     9     2     3   ar
    10     3    25    1
    11    27    25    1
    12    27    28    1
    13    28    29    1
    14    29    30    1
    15    30    31    1
    16    31    32    1
    17    32    33    1
    18     3     4   ar
    19     4     5   ar
    20     5     6   ar
    21     6     7    1
    22     7     8   am
    23     7     9    2
    24    17    18   ar
    25    18    19   ar
    26    19    20    1
    27    20    21    1
    28    20    22    1
    29    19    14   ar
    30     6     1   ar
    31    32    27    1
    32    12    13    1
    33    25    26    1
    34    33    34    1
    35    33    35    1
    36     8    10    1
    37     8    11    1
@<TRIPOS>MOLECULE
*****
 35 37 0 0 0
SMALL
GASTEIGER

@<TRIPOS>ATOM
      1 C         140.9025  140.2407  167.4839 C.ar    1  UNL1        0.0764
      2 C         141.7568  139.7161  166.3681 C.ar    1  UNL1        0.0522
      3 C         142.9821  138.9082  166.6777 C.ar    1  UNL1        0.1515
      4 N         143.3532  138.6249  168.1032 N.ar    1  UNL1       -0.1329
      5 N         142.4990  139.1495  169.2191 N.ar    1  UNL1       -0.1409
      6 C         141.2736  139.9574  168.9094 C.ar    1  UNL1        0.1691
      7 C         140.4194  140.4820  170.0252 C.2     1  UNL1        0.2635
      8 N         139.9827  139.5659  171.1298 N.am    1  UNL1       -0.3240
      9 O         140.0019  141.9226  170.0365 O.2     1  UNL1       -0.2686
     10 H         140.2567  138.6203  171.1224 H       1  UNL1        0.1453
     11 H         139.4220  139.9102  171.8622 H       1  UNL1        0.1453
     12 N         139.6772  141.0486  167.1743 N.pl3   1  UNL1       -0.2965
     13 H         139.1415  141.4307  167.9065 H       1  UNL1        0.1537
     14 C         138.4497  141.7253  162.8981 C.ar    1  UNL1        0.1522
     15 C         137.8621  140.5851  163.6756 C.ar    1  UNL1        0.0410
     16 C         138.2713  140.3595  165.1010 C.ar    1  UNL1        0.0375
     17 C         139.2680  141.2742  165.7489 C.ar    1  UNL1        0.1320
     18 N         139.8556  142.4144  164.9714 N.ar    1  UNL1       -0.2319
     19 C         139.4464  142.6400  163.5460 C.ar    1  UNL1        0.0938
     20 C         140.0341  143.7803  162.7686 C.3     1  UNL1        0.0434
     21 C         141.2278  143.5523  161.8894 C.3     1  UNL1        0.0064
     22 C         139.4280  145.1486  162.8703 C.3     1  UNL1        0.0064
     23 C         138.3058  140.8956  160.4403 C.3     1  UNL1        0.2525
     24 O         138.0405  141.9509  161.4728 O.3     1  UNL1       -0.4702
     25 N         143.8364  138.3836  165.5619 N.pl3   1  UNL1       -0.3170
     26 H         144.2533  137.4950  165.6371 H       1  UNL1        0.1482
     27 C         144.0554  139.2131  164.3314 C.3     1  UNL1        0.0845
     28 C         144.9972  140.3799  164.3713 C.3     1  UNL1        0.0209
     29 C         145.2162  141.2094  163.1408 C.3     1  UNL1        0.0018
     30 C         144.4934  140.8719  161.8704 C.3     1  UNL1        0.0015
     31 C         143.5517  139.7051  161.8306 C.3     1  UNL1        0.0172
     32 C         143.3327  138.8757  163.0611 C.3     1  UNL1        0.0689
     33 N         142.3910  137.7088  163.0212 N.3     1  UNL1       -0.3209
     34 H         142.3640  137.2622  163.9379 H       1  UNL1        0.1189
     35 H         142.7121  137.0364  162.3247 H       1  UNL1        0.1189
@<TRIPOS>BOND
     1    23    24    1
     2    24    14    1
     3    14    15   ar
     4    15    16   ar
     5    16    17   ar
     6    17    12    1
     7    12     1    1
     8     1     2   ar
     9     2     3   ar
    10     3    25    1
    11    27    25    1
    12    27    28    1
    13    28    29    1
    14    29    30    1
    15    30    31    1
    16    31    32    1
    17    32    33    1
    18     3     4   ar
    19     4     5   ar
    20     5     6   ar
    21     6     7    1
    22     7     8   am
    23     7     9    2
    24    17    18   ar
    25    18    19   ar
    26    19    20    1
    27    20    21    1
    28    20    22    1
    29    19    14   ar
    30     6     1   ar
    31    32    27    1
    32    12    13    1
    33    25    26    1
    34    33    34    1
    35    33    35    1
    36     8    10    1
    37     8    11    1
@<TRIPOS>MOLECULE
*****
 35 37 0 0 0
SMALL
GASTEIGER

@<TRIPOS>ATOM
      1 C         142.5393  141.8793  163.5063 C.ar    1  UNL1        0.0764
      2 C         141.2474  141.1272  163.6304 C.ar    1  UNL1        0.0522
      3 C         140.2449  141.1692  162.5155 C.ar    1  UNL1        0.1515
      4 N         140.5343  141.9634  161.2762 N.ar    1  UNL1       -0.1329
      5 N         141.8262  142.7154  161.1520 N.ar    1  UNL1       -0.1409
      6 C         142.8287  142.6734  162.2671 C.ar    1  UNL1        0.1691
      7 C         144.1205  143.4255  162.1428 C.2     1  UNL1        0.2635
      8 N         145.3423  142.7352  161.6128 N.am    1  UNL1       -0.3240
      9 O         144.1907  144.8678  162.5487 O.2     1  UNL1       -0.2686
     10 H         145.2963  141.7886  161.3465 H       1  UNL1        0.1453
     11 H         146.1902  143.2289  161.5313 H       1  UNL1        0.1453
     12 N         143.5418  141.8373  164.6213 N.pl3   1  UNL1       -0.2965
     13 H         144.4683  142.1292  164.4615 H       1  UNL1        0.1537
     14 C         142.3143  140.3765  168.6967 C.ar    1  UNL1        0.1522
     15 C         142.6432  139.3913  167.6146 C.ar    1  UNL1        0.0410
     16 C         143.0524  139.8782  166.2561 C.ar    1  UNL1        0.0375
     17 C         143.1326  141.3504  165.9798 C.ar    1  UNL1        0.1320
     18 N         142.8036  142.3356  167.0619 N.ar    1  UNL1       -0.2319
     19 C         142.3944  141.8487  168.4204 C.ar    1  UNL1        0.0938
     20 C         142.0655  142.8340  169.5026 C.3     1  UNL1        0.0434
     21 C         140.7148  143.4854  169.5384 C.3     1  UNL1        0.0064
     22 C         143.0871  143.1677  170.5489 C.3     1  UNL1        0.0064
     23 C         140.4527  139.8346  170.4262 C.3     1  UNL1        0.2525
     24 O         141.9051  139.8896  170.0552 O.3     1  UNL1       -0.4702
     25 N         138.9530  140.4171  162.6396 N.pl3   1  UNL1       -0.3170
     26 H         138.2573  140.5166  161.9502 H       1  UNL1        0.1482
     27 C         138.7212  139.5135  163.8142 C.3     1  UNL1        0.0845
     28 C         138.1746  140.0727  165.0944 C.3     1  UNL1        0.0209
     29 C         137.9428  139.1691  166.2690 C.3     1  UNL1        0.0018
     30 C         138.2575  137.7062  166.1634 C.3     1  UNL1        0.0015
     31 C         138.8040  137.1471  164.8833 C.3     1  UNL1        0.0172
     32 C         139.0358  138.0507  163.7087 C.3     1  UNL1        0.0689
     33 N         139.5823  137.4915  162.4287 N.3     1  UNL1       -0.3209
     34 H         139.6755  138.2407  161.7428 H       1  UNL1        0.1189
     35 H         138.9464  136.7793  162.0699 H       1  UNL1        0.1189
@<TRIPOS>BOND
     1    23    24    1
     2    24    14    1
     3    14    15   ar
     4    15    16   ar
     5    16    17   ar
     6    17    12    1
     7    12     1    1
     8     1     2   ar
     9     2     3   ar
    10     3    25    1
    11    27    25    1
    12    27    28    1
    13    28    29    1
    14    29    30    1
    15    30    31    1
    16    31    32    1
    17    32    33    1
    18     3     4   ar
    19     4     5   ar
    20     5     6   ar
    21     6     7    1
    22     7     8   am
    23     7     9    2
    24    17    18   ar
    25    18    19   ar
    26    19    20    1
    27    20    21    1
    28    20    22    1
    29    19    14   ar
    30     6     1   ar
    31    32    27    1
    32    12    13    1
    33    25    26    1
    34    33    34    1
    35    33    35    1
    36     8    10    1
    37     8    11    1
@<TRIPOS>MOLECULE
*****
 35 37 0 0 0
SMALL
GASTEIGER

@<TRIPOS>ATOM
      1 C         141.9179  140.5578  167.3955 C.ar    1  UNL1        0.0764
      2 C         140.7141  140.1588  166.5945 C.ar    1  UNL1        0.0522
      3 C         139.4348  139.8005  167.2910 C.ar    1  UNL1        0.1515
      4 N         139.3594  139.8413  168.7885 N.ar    1  UNL1       -0.1329
      5 N         140.5631  140.2403  169.5895 N.ar    1  UNL1       -0.1409
      6 C         141.8425  140.5986  168.8930 C.ar    1  UNL1        0.1691
      7 C         143.0462  140.9975  169.6941 C.2     1  UNL1        0.2635
      8 N         143.5178  140.1290  170.8225 N.am    1  UNL1       -0.3240
      9 O         143.7785  142.2650  169.3667 O.2     1  UNL1       -0.2686
     10 H         143.0372  139.2971  171.0374 H       1  UNL1        0.1453
     11 H         144.3079  140.3909  171.3482 H       1  UNL1        0.1453
     12 N         143.1972  140.9161  166.6990 N.pl3   1  UNL1       -0.2965
     13 H         144.0603  140.6332  167.0787 H       1  UNL1        0.1537
     14 C         143.0896  143.2838  162.8738 C.ar    1  UNL1        0.1522
     15 C         143.2740  143.9867  164.1859 C.ar    1  UNL1        0.0410
     16 C         143.3098  143.1974  165.4610 C.ar    1  UNL1        0.0375
     17 C         143.1613  141.7053  165.4239 C.ar    1  UNL1        0.1320
     18 N         142.9769  141.0024  164.1117 N.ar    1  UNL1       -0.2319
     19 C         142.9411  141.7917  162.8366 C.ar    1  UNL1        0.0938
     20 C         142.7567  141.0887  161.5244 C.3     1  UNL1        0.0434
     21 C         141.3770  140.8709  160.9776 C.3     1  UNL1        0.0064
     22 C         143.9520  140.6036  160.7590 C.3     1  UNL1        0.0064
     23 C         141.7500  144.6063  161.0831 C.3     1  UNL1        0.2525
     24 O         143.0538  144.0730  161.5987 O.3     1  UNL1       -0.4702
     25 N         138.2310  139.4015  166.4899 N.pl3   1  UNL1       -0.3170
     26 H         137.3537  139.3168  166.9287 H       1  UNL1        0.1482
     27 C         138.3637  139.1317  165.0204 C.3     1  UNL1        0.0845
     28 C         138.8748  137.8040  164.5448 C.3     1  UNL1        0.0209
     29 C         139.0075  137.5341  163.0753 C.3     1  UNL1        0.0018
     30 C         138.6293  138.5920  162.0813 C.3     1  UNL1        0.0015
     31 C         138.1183  139.9196  162.5569 C.3     1  UNL1        0.0172
     32 C         137.9855  140.1895  164.0264 C.3     1  UNL1        0.0689
     33 N         137.4745  141.5171  164.5020 N.3     1  UNL1       -0.3209
     34 H         137.4496  141.5263  165.5217 H       1  UNL1        0.1189
     35 H         136.5342  141.6699  164.1375 H       1  UNL1        0.1189
@<TRIPOS>BOND
     1    23    24    1
     2    24    14    1
     3    14    15   ar
     4    15    16   ar
     5    16    17   ar
     6    17    12    1
     7    12     1    1
     8     1     2   ar
     9     2     3   ar
    10     3    25    1
    11    27    25    1
    12    27    28    1
    13    28    29    1
    14    29    30    1
    15    30    31    1
    16    31    32    1
    17    32    33    1
    18     3     4   ar
    19     4     5   ar
    20     5     6   ar
    21     6     7    1
    22     7     8   am
    23     7     9    2
    24    17    18   ar
    25    18    19   ar
    26    19    20    1
    27    20    21    1
    28    20    22    1
    29    19    14   ar
    30     6     1   ar
    31    32    27    1
    32    12    13    1
    33    25    26    1
    34    33    34    1
    35    33    35    1
    36     8    10    1
    37     8    11    1
@<TRIPOS>MOLECULE
*****
 35 37 0 0 0
SMALL
GASTEIGER

@<TRIPOS>ATOM
      1 C         141.1499  141.8865  167.2520 C.ar    1  UNL1        0.0764
      2 C         141.4267  140.7654  166.2946 C.ar    1  UNL1        0.0522
      3 C         142.2810  139.6086  166.7210 C.ar    1  UNL1        0.1515
      4 N         142.8587  139.5729  168.1049 N.ar    1  UNL1       -0.1329
      5 N         142.5819  140.6939  169.0623 N.ar    1  UNL1       -0.1409
      6 C         141.7275  141.8508  168.6359 C.ar    1  UNL1        0.1691
      7 C         141.4508  142.9718  169.5933 C.2     1  UNL1        0.2635
      8 N         142.5470  143.4936  170.4742 N.am    1  UNL1       -0.3240
      9 O         140.0778  143.5710  169.6698 O.2     1  UNL1       -0.2686
     10 H         143.4481  143.1003  170.4240 H       1  UNL1        0.1453
     11 H         142.3654  144.2294  171.1026 H       1  UNL1        0.1453
     12 N         140.2955  143.0433  166.8256 N.pl3   1  UNL1       -0.2965
     13 H         140.1034  143.7729  167.4581 H       1  UNL1        0.1537
     14 C         138.6102  143.1788  162.6553 C.ar    1  UNL1        0.1522
     15 C         138.0111  142.2582  163.6768 C.ar    1  UNL1        0.0410
     16 C         138.5728  142.2131  165.0669 C.ar    1  UNL1        0.0375
     17 C         139.7337  143.0884  165.4355 C.ar    1  UNL1        0.1320
     18 N         140.3329  144.0090  164.4140 N.ar    1  UNL1       -0.2319
     19 C         139.7712  144.0542  163.0239 C.ar    1  UNL1        0.0938
     20 C         140.3704  144.9748  162.0023 C.3     1  UNL1        0.0434
     21 C         141.5849  144.5504  161.2311 C.3     1  UNL1        0.0064
     22 C         139.7551  146.3197  161.7521 C.3     1  UNL1        0.0064
     23 C         138.4966  142.2226  160.2423 C.3     1  UNL1        0.2525
     24 O         138.0485  143.2240  161.2652 O.3     1  UNL1       -0.4702
     25 N         142.5578  138.4875  165.7636 N.pl3   1  UNL1       -0.3170
     26 H         142.4176  137.5544  166.0445 H       1  UNL1        0.1482
     27 C         143.0482  138.7882  164.3783 C.3     1  UNL1        0.0845
     28 C         144.1253  139.8112  164.1695 C.3     1  UNL1        0.0209
     29 C         144.6157  140.1119  162.7842 C.3     1  UNL1        0.0018
     30 C         144.0290  139.3896  161.6076 C.3     1  UNL1        0.0015
     31 C         142.9520  138.3667  161.8165 C.3     1  UNL1        0.0172
     32 C         142.4616  138.0660  163.2018 C.3     1  UNL1        0.0689
     33 N         141.3845  137.0431  163.4106 N.3     1  UNL1       -0.3209
     34 H         141.1761  136.9673  164.4062 H       1  UNL1        0.1189
     35 H         141.7014  136.1393  163.0598 H       1  UNL1        0.1189
@<TRIPOS>BOND
     1    23    24    1
     2    24    14    1
     3    14    15   ar
     4    15    16   ar
     5    16    17   ar
     6    17    12    1
     7    12     1    1
     8     1     2   ar
     9     2     3   ar
    10     3    25    1
    11    27    25    1
    12    27    28    1
    13    28    29    1
    14    29    30    1
    15    30    31    1
    16    31    32    1
    17    32    33    1
    18     3     4   ar
    19     4     5   ar
    20     5     6   ar
    21     6     7    1
    22     7     8   am
    23     7     9    2
    24    17    18   ar
    25    18    19   ar
    26    19    20    1
    27    20    21    1
    28    20    22    1
    29    19    14   ar
    30     6     1   ar
    31    32    27    1
    32    12    13    1
    33    25    26    1
    34    33    34    1
    35    33    35    1
    36     8    10    1
    37     8    11    1
