@<TRIPOS>MOLECULE
*****
 26 30 0 0 0
SMALL
GASTEIGER

@<TRIPOS>ATOM
      1 N         144.1283  143.3920  165.8195 N.pl3   1  UNL1       -0.2535
      2 H         144.9561  143.8329  166.1188 H       1  UNL1        0.1579
      3 C         143.6280  143.6055  164.4216 C.2     1  UNL1        0.2847
      4 N         144.2419  143.0496  163.1710 N.2     1  UNL1       -0.2204
      5 C         143.4193  143.5129  162.0054 C.3     1  UNL1        0.1712
      6 C         142.2970  144.3551  162.5356 C.3     1  UNL1        0.1729
      7 C         141.2331  145.1704  163.2091 C.3     1  UNL1        0.1147
      8 N         140.1687  145.8381  162.3898 N.3     1  UNL1       -0.2697
      9 C         140.1682  145.6906  160.8971 C.3     1  UNL1        0.0723
     10 C         141.2320  144.8754  160.2237 C.3     1  UNL1        0.0209
     11 C         142.2964  144.2076  161.0429 C.3     1  UNL1        0.0429
     12 C         141.8002  144.6667  162.1533 C.3     1  UNL1        0.0209
     13 C         141.2329  145.1015  162.5125 C.3     1  UNL1        0.0723
     14 O         142.4260  144.4123  164.0289 O.2     1  UNL1       -0.4536
     15 C         141.5759  140.6700  167.1711 C.ar    1  UNL1        0.0858
     16 C         142.3370  141.5553  166.2291 C.ar    1  UNL1        0.0537
     17 C         143.3672  142.5067  166.7614 C.ar    1  UNL1        0.1387
     18 N         143.6365  142.5728  168.2356 N.ar    1  UNL1       -0.2088
     19 C         142.8755  141.6876  169.1774 C.ar    1  UNL1        0.2000
     20 N         141.8452  140.7362  168.6451 N.ar    1  UNL1       -0.2239
     21 C         138.4850  137.8158  165.5742 C.ar    1  UNL1        0.0000
     22 C         138.1325  138.7571  166.6877 C.ar    1  UNL1        0.0000
     23 C         139.1628  139.7085  167.2200 C.ar    1  UNL1        0.0015
     24 C         140.5456  139.7186  166.6388 C.ar    1  UNL1        0.0178
     25 C         140.8981  138.7774  165.5253 C.ar    1  UNL1        0.0015
     26 C         139.8678  137.8260  164.9930 C.ar    1  UNL1        0.0000
@<TRIPOS>BOND
     1    21    22   ar
     2    22    23   ar
     3    23    24   ar
     4    24    15    1
     5    15    16   ar
     6    16    17   ar
     7    17     1    1
     8     1     3    1
     9     3     4    2
    10     4     5    1
    11     6     5    1
    12     6     7    1
    13     7     8    1
    14     8     9    1
    15     9    10    1
    16    10    11    1
    17    11    12    1
    18    12    13    1
    19     6    14    1
    20    17    18   ar
    21    18    19   ar
    22    19    20   ar
    23    24    25   ar
    24    25    26   ar
    25    26    21   ar
    26    20    15   ar
    27    14     3    1
    28    11     6    1
    29    13     8    1
    30     1     2    1
@<TRIPOS>MOLECULE
*****
 26 30 0 0 0
SMALL
GASTEIGER

@<TRIPOS>ATOM
      1 N         138.5586  139.1146  166.9003 N.pl3   1  UNL1       -0.2535
      2 H         137.8977  138.6936  167.4962 H       1  UNL1        0.1579
      3 C         138.5495  138.8056  165.4326 C.2     1  UNL1        0.2847
      4 N         138.9348  137.4992  164.8042 N.2     1  UNL1       -0.2204
      5 C         138.7768  137.6349  163.3187 C.3     1  UNL1        0.1712
      6 C         138.2938  139.0251  163.0290 C.3     1  UNL1        0.1729
      7 C         137.8144  140.4400  162.8943 C.3     1  UNL1        0.1147
      8 N         137.5231  141.0071  161.5365 N.3     1  UNL1       -0.2697
      9 C         137.7111  140.1594  160.3135 C.3     1  UNL1        0.0723
     10 C         138.1905  138.7445  160.4482 C.3     1  UNL1        0.0209
     11 C         138.4819  138.1773  161.8059 C.3     1  UNL1        0.0429
     12 C         138.1579  139.2898  162.3954 C.3     1  UNL1        0.0209
     13 C         137.9022  140.0444  162.3235 C.3     1  UNL1        0.0723
     14 O         138.1533  139.7486  164.3354 O.2     1  UNL1       -0.4536
     15 C         141.4284  141.8490  167.0954 C.ar    1  UNL1        0.0858
     16 C         140.4120  140.8983  166.5355 C.ar    1  UNL1        0.0537
     17 C         139.5749  140.0653  167.4602 C.ar    1  UNL1        0.1387
     18 N         139.7540  140.1829  168.9449 N.ar    1  UNL1       -0.2088
     19 C         140.7702  141.1335  169.5047 C.ar    1  UNL1        0.2000
     20 N         141.6074  141.9666  168.5800 N.ar    1  UNL1       -0.2239
     21 C         143.9398  144.3482  164.3212 C.ar    1  UNL1        0.0000
     22 C         142.4627  144.2263  164.0907 C.ar    1  UNL1        0.0000
     23 C         141.6255  143.3933  165.0155 C.ar    1  UNL1        0.0015
     24 C         142.2655  142.6821  166.1707 C.ar    1  UNL1        0.0178
     25 C         143.7427  142.8039  166.4011 C.ar    1  UNL1        0.0015
     26 C         144.5799  143.6370  165.4764 C.ar    1  UNL1        0.0000
@<TRIPOS>BOND
     1    21    22   ar
     2    22    23   ar
     3    23    24   ar
     4    24    15    1
     5    15    16   ar
     6    16    17   ar
     7    17     1    1
     8     1     3    1
     9     3     4    2
    10     4     5    1
    11     6     5    1
    12     6     7    1
    13     7     8    1
    14     8     9    1
    15     9    10    1
    16    10    11    1
    17    11    12    1
    18    12    13    1
    19     6    14    1
    20    17    18   ar
    21    18    19   ar
    22    19    20   ar
    23    24    25   ar
    24    25    26   ar
    25    26    21   ar
    26    20    15   ar
    27    14     3    1
    28    11     6    1
    29    13     8    1
    30     1     2    1
@<TRIPOS>MOLECULE
*****
 26 30 0 0 0
SMALL
GASTEIGER

@<TRIPOS>ATOM
      1 N         144.2519  143.3220  165.9433 N.pl3   1  UNL1       -0.2535
      2 H         144.7135  144.1092  166.3128 H       1  UNL1        0.1579
      3 C         144.3960  142.9818  164.4895 C.2     1  UNL1        0.2847
      4 N         145.3982  142.0335  163.9010 N.2     1  UNL1       -0.2204
      5 C         145.1848  141.9959  162.4168 C.3     1  UNL1        0.1712
      6 C         144.0508  142.9210  162.0879 C.3     1  UNL1        0.1729
      7 C         142.9079  143.8765  161.9128 C.3     1  UNL1        0.1147
      8 N         142.3579  144.1451  160.5434 N.3     1  UNL1       -0.2697
      9 C         142.9508  143.4581  159.3490 C.3     1  UNL1        0.0723
     10 C         144.0937  142.5026  159.5241 C.3     1  UNL1        0.0209
     11 C         144.6437  142.2340  160.8935 C.3     1  UNL1        0.0429
     12 C         143.7941  143.0463  161.4488 C.3     1  UNL1        0.0209
     13 C         143.1846  143.5559  161.3554 C.3     1  UNL1        0.0723
     14 O         143.5633  143.5303  163.3689 O.2     1  UNL1       -0.4536
     15 C         141.5760  140.6401  167.1254 C.ar    1  UNL1        0.0858
     16 C         142.4235  141.4994  166.2345 C.ar    1  UNL1        0.0537
     17 C         143.4045  142.4628  166.8341 C.ar    1  UNL1        0.1387
     18 N         143.5380  142.5669  168.3245 N.ar    1  UNL1       -0.2088
     19 C         142.6906  141.7077  169.2154 C.ar    1  UNL1        0.2000
     20 N         141.7096  140.7443  168.6157 N.ar    1  UNL1       -0.2239
     21 C         138.6330  137.7500  165.3266 C.ar    1  UNL1        0.0000
     22 C         140.0509  137.7782  164.8379 C.ar    1  UNL1        0.0000
     23 C         141.0319  138.7416  165.4375 C.ar    1  UNL1        0.0015
     24 C         140.5950  139.6768  166.5258 C.ar    1  UNL1        0.0178
     25 C         139.1771  139.6486  167.0145 C.ar    1  UNL1        0.0015
     26 C         138.1961  138.6852  166.4149 C.ar    1  UNL1        0.0000
@<TRIPOS>BOND
     1    21    22   ar
     2    22    23   ar
     3    23    24   ar
     4    24    15    1
     5    15    16   ar
     6    16    17   ar
     7    17     1    1
     8     1     3    1
     9     3     4    2
    10     4     5    1
    11     6     5    1
    12     6     7    1
    13     7     8    1
    14     8     9    1
    15     9    10    1
    16    10    11    1
    17    11    12    1
    18    12    13    1
    19     6    14    1
    20    17    18   ar
    21    18    19   ar
    22    19    20   ar
    23    24    25   ar
    24    25    26   ar
    25    26    21   ar
    26    20    15   ar
    27    14     3    1
    28    11     6    1
    29    13     8    1
    30     1     2    1
@<TRIPOS>MOLECULE
*****
 26 30 0 0 0
SMALL
GASTEIGER

@<TRIPOS>ATOM
      1 N         138.7830  139.7578  163.8471 N.pl3   1  UNL1       -0.2535
      2 H         138.3240  139.0665  163.3173 H       1  UNL1        0.1579
      3 C         139.4893  140.8863  163.1562 C.2     1  UNL1        0.2847
      4 N         140.8342  140.8123  162.4960 N.2     1  UNL1       -0.2204
      5 C         141.1508  142.1674  161.9360 C.3     1  UNL1        0.1712
      6 C         140.0017  143.0789  162.2500 C.3     1  UNL1        0.1729
      7 C         138.7850  143.8674  162.6346 C.3     1  UNL1        0.1147
      8 N         138.6810  145.3162  162.2602 N.3     1  UNL1       -0.2697
      9 C         139.7937  145.9765  161.5013 C.3     1  UNL1        0.0723
     10 C         141.0103  145.1880  161.1168 C.3     1  UNL1        0.0209
     11 C         141.1143  143.7391  161.4911 C.3     1  UNL1        0.0429
     12 C         139.9531  143.7550  162.0753 C.3     1  UNL1        0.0209
     13 C         139.3043  144.1755  162.2804 C.3     1  UNL1        0.0723
     14 O         138.9748  142.2871  163.0042 O.2     1  UNL1       -0.4536
     15 C         139.7588  140.4053  167.6390 C.ar    1  UNL1        0.0858
     16 C         139.7659  140.4806  166.1408 C.ar    1  UNL1        0.0537
     17 C         138.7760  139.6825  165.3452 C.ar    1  UNL1        0.1387
     18 N         137.7790  138.8091  166.0476 N.ar    1  UNL1       -0.2088
     19 C         137.7720  138.7338  167.5457 C.ar    1  UNL1        0.2000
     20 N         138.7619  139.5320  168.3413 N.ar    1  UNL1       -0.2239
     21 C         142.7285  142.7997  170.0260 C.ar    1  UNL1        0.0000
     22 C         143.1344  141.4873  169.4236 C.ar    1  UNL1        0.0000
     23 C         142.1444  140.6891  168.6280 C.ar    1  UNL1        0.0015
     24 C         140.7487  141.2035  168.4347 C.ar    1  UNL1        0.0178
     25 C         140.3429  142.5159  169.0370 C.ar    1  UNL1        0.0015
     26 C         141.3328  143.3140  169.8327 C.ar    1  UNL1        0.0000
@<TRIPOS>BOND
     1    21    22   ar
     2    22    23   ar
     3    23    24   ar
     4    24    15    1
     5    15    16   ar
     6    16    17   ar
     7    17     1    1
     8     1     3    1
     9     3     4    2
    10     4     5    1
    11     6     5    1
    12     6     7    1
    13     7     8    1
    14     8     9    1
    15     9    10    1
    16    10    11    1
    17    11    12    1
    18    12    13    1
    19     6    14    1
    20    17    18   ar
    21    18    19   ar
    22    19    20   ar
    23    24    25   ar
    24    25    26   ar
    25    26    21   ar
    26    20    15   ar
    27    14     3    1
    28    11     6    1
    29    13     8    1
    30     1     2    1
@<TRIPOS>MOLECULE
*****
 26 30 0 0 0
SMALL
GASTEIGER

@<TRIPOS>ATOM
      1 N         140.4707  137.7510  163.9577 N.pl3   1  UNL1       -0.2535
      2 H         140.4251  136.8459  163.5731 H       1  UNL1        0.1579
      3 C         141.3584  138.7870  163.3343 C.2     1  UNL1        0.2847
      4 N         141.0716  139.5528  162.0768 N.2     1  UNL1       -0.2204
      5 C         142.2248  140.4781  161.8244 C.3     1  UNL1        0.1712
      6 C         143.2244  140.2843  162.9259 C.3     1  UNL1        0.1729
      7 C         144.1257  139.9833  164.0865 C.3     1  UNL1        0.1147
      8 N         145.4315  140.7074  164.2296 N.3     1  UNL1       -0.2697
      9 C         145.8360  141.7327  163.2122 C.3     1  UNL1        0.0723
     10 C         144.9347  142.0338  162.0516 C.3     1  UNL1        0.0209
     11 C         143.6289  141.3096  161.9085 C.3     1  UNL1        0.0429
     12 C         143.8338  140.6223  162.9927 C.3     1  UNL1        0.0209
     13 C         144.3145  140.4617  163.6117 C.3     1  UNL1        0.0723
     14 O         142.6889  139.2391  163.8591 O.2     1  UNL1       -0.4536
     15 C         139.2346  139.5876  167.2515 C.ar    1  UNL1        0.0858
     16 C         140.0531  139.2445  166.0421 C.ar    1  UNL1        0.0537
     17 C         139.6522  138.0941  165.1670 C.ar    1  UNL1        0.1387
     18 N         138.4330  137.2868  165.5012 N.ar    1  UNL1       -0.2088
     19 C         137.6146  137.6299  166.7105 C.ar    1  UNL1        0.2000
     20 N         138.0154  138.7803  167.5856 N.ar    1  UNL1       -0.2239
     21 C         140.4371  143.0389  169.8768 C.ar    1  UNL1        0.0000
     22 C         139.7470  141.8479  170.4730 C.ar    1  UNL1        0.0000
     23 C         139.3461  140.6975  169.5979 C.ar    1  UNL1        0.0015
     24 C         139.6354  140.7380  168.1266 C.ar    1  UNL1        0.0178
     25 C         140.3256  141.9290  167.5305 C.ar    1  UNL1        0.0015
     26 C         140.7264  143.0794  168.4056 C.ar    1  UNL1        0.0000
@<TRIPOS>BOND
     1    21    22   ar
     2    22    23   ar
     3    23    24   ar
     4    24    15    1
     5    15    16   ar
     6    16    17   ar
     7    17     1    1
     8     1     3    1
     9     3     4    2
    10     4     5    1
    11     6     5    1
    12     6     7    1
    13     7     8    1
    14     8     9    1
    15     9    10    1
    16    10    11    1
    17    11    12    1
    18    12    13    1
    19     6    14    1
    20    17    18   ar
    21    18    19   ar
    22    19    20   ar
    23    24    25   ar
    24    25    26   ar
    25    26    21   ar
    26    20    15   ar
    27    14     3    1
    28    11     6    1
    29    13     8    1
    30     1     2    1
@<TRIPOS>MOLECULE
*****
 26 30 0 0 0
SMALL
GASTEIGER

@<TRIPOS>ATOM
      1 N         140.5758  144.2946  158.2987 N.pl3   1  UNL1       -0.2535
      2 H         141.4233  143.8415  158.0851 H       1  UNL1        0.1579
      3 C         140.1472  144.4489  159.7279 C.2     1  UNL1        0.2847
      4 N         140.5820  145.5352  160.6664 N.2     1  UNL1       -0.2204
      5 C         139.9121  145.3016  161.9880 C.3     1  UNL1        0.1712
      6 C         139.0633  144.0708  161.8664 C.3     1  UNL1        0.1729
      7 C         138.2640  142.8307  161.5960 C.3     1  UNL1        0.1147
      8 N         137.4183  142.2321  162.6807 N.3     1  UNL1       -0.2697
      9 C         137.3721  142.8736  164.0358 C.3     1  UNL1        0.0723
     10 C         138.1714  144.1137  164.3062 C.3     1  UNL1        0.0209
     11 C         139.0170  144.7123  163.2215 C.3     1  UNL1        0.0429
     12 C         138.6687  143.7915  162.3726 C.3     1  UNL1        0.0209
     13 C         138.2424  143.1301  162.2284 C.3     1  UNL1        0.0723
     14 O         139.2086  143.5438  160.4695 O.2     1  UNL1       -0.4536
     15 C         138.9541  146.8084  155.6908 C.ar    1  UNL1        0.0858
     16 C         139.8171  146.2724  156.7946 C.ar    1  UNL1        0.0537
     17 C         139.7129  144.8306  157.1950 C.ar    1  UNL1        0.1387
     18 N         138.7460  143.9248  156.4918 N.ar    1  UNL1       -0.2088
     19 C         137.8832  144.4608  155.3880 C.ar    1  UNL1        0.2000
     20 N         137.9873  145.9026  154.9876 N.ar    1  UNL1       -0.2239
     21 C         139.2665  151.1338  154.4895 C.ar    1  UNL1        0.0000
     22 C         138.5483  150.7557  155.7509 C.ar    1  UNL1        0.0000
     23 C         138.4442  149.3139  156.1514 C.ar    1  UNL1        0.0015
     24 C         139.0583  148.2502  155.2903 C.ar    1  UNL1        0.0178
     25 C         139.7765  148.6283  154.0289 C.ar    1  UNL1        0.0015
     26 C         139.8806  150.0701  153.6284 C.ar    1  UNL1        0.0000
@<TRIPOS>BOND
     1    21    22   ar
     2    22    23   ar
     3    23    24   ar
     4    24    15    1
     5    15    16   ar
     6    16    17   ar
     7    17     1    1
     8     1     3    1
     9     3     4    2
    10     4     5    1
    11     6     5    1
    12     6     7    1
    13     7     8    1
    14     8     9    1
    15     9    10    1
    16    10    11    1
    17    11    12    1
    18    12    13    1
    19     6    14    1
    20    17    18   ar
    21    18    19   ar
    22    19    20   ar
    23    24    25   ar
    24    25    26   ar
    25    26    21   ar
    26    20    15   ar
    27    14     3    1
    28    11     6    1
    29    13     8    1
    30     1     2    1
@<TRIPOS>MOLECULE
*****
 26 30 0 0 0
SMALL
GASTEIGER

@<TRIPOS>ATOM
      1 N         143.2546  138.7618  166.7242 N.pl3   1  UNL1       -0.2535
      2 H         143.7480  138.1392  167.3058 H       1  UNL1        0.1579
      3 C         143.5522  138.8111  165.2549 C.2     1  UNL1        0.2847
      4 N         144.7930  139.3711  164.6249 N.2     1  UNL1       -0.2204
      5 C         144.6689  139.2152  163.1382 C.3     1  UNL1        0.1712
      6 C         143.3514  138.5588  162.8493 C.3     1  UNL1        0.1729
      7 C         142.0101  137.9009  162.7156 C.3     1  UNL1        0.1147
      8 N         141.4764  137.5550  161.3571 N.3     1  UNL1       -0.2697
      9 C         142.2841  137.8670  160.1323 C.3     1  UNL1        0.0723
     10 C         143.6255  138.5249  160.2660 C.3     1  UNL1        0.0209
     11 C         144.1591  138.8708  161.6245 C.3     1  UNL1        0.0429
     12 C         143.1024  138.3974  162.2153 C.3     1  UNL1        0.0209
     13 C         142.3870  138.0465  162.1440 C.3     1  UNL1        0.0723
     14 O         142.6613  138.3091  164.1575 O.2     1  UNL1       -0.4536
     15 C         140.3402  141.4423  166.9924 C.ar    1  UNL1        0.0858
     16 C         141.3897  140.5430  166.4091 C.ar    1  UNL1        0.0537
     17 C         142.2052  139.6610  167.3075 C.ar    1  UNL1        0.1387
     18 N         141.9712  139.6782  168.7890 N.ar    1  UNL1       -0.2088
     19 C         140.9219  140.5774  169.3723 C.ar    1  UNL1        0.2000
     20 N         140.1064  141.4594  168.4739 N.ar    1  UNL1       -0.2239
     21 C         137.8938  144.0883  164.2974 C.ar    1  UNL1        0.0000
     22 C         138.8110  144.6980  165.3157 C.ar    1  UNL1        0.0000
     23 C         139.6265  143.8160  166.2141 C.ar    1  UNL1        0.0015
     24 C         139.5247  142.3243  166.0941 C.ar    1  UNL1        0.0178
     25 C         138.6075  141.7146  165.0758 C.ar    1  UNL1        0.0015
     26 C         137.7920  142.5966  164.1775 C.ar    1  UNL1        0.0000
@<TRIPOS>BOND
     1    21    22   ar
     2    22    23   ar
     3    23    24   ar
     4    24    15    1
     5    15    16   ar
     6    16    17   ar
     7    17     1    1
     8     1     3    1
     9     3     4    2
    10     4     5    1
    11     6     5    1
    12     6     7    1
    13     7     8    1
    14     8     9    1
    15     9    10    1
    16    10    11    1
    17    11    12    1
    18    12    13    1
    19     6    14    1
    20    17    18   ar
    21    18    19   ar
    22    19    20   ar
    23    24    25   ar
    24    25    26   ar
    25    26    21   ar
    26    20    15   ar
    27    14     3    1
    28    11     6    1
    29    13     8    1
    30     1     2    1
@<TRIPOS>MOLECULE
*****
 26 30 0 0 0
SMALL
GASTEIGER

@<TRIPOS>ATOM
      1 N         142.3116  139.0383  158.5214 N.pl3   1  UNL1       -0.2535
      2 H         141.5303  139.5934  158.2963 H       1  UNL1        0.1579
      3 C         142.8587  139.0447  159.9181 C.2     1  UNL1        0.2847
      4 N         142.6576  137.9734  160.9486 N.2     1  UNL1       -0.2204
      5 C         143.3776  138.3901  162.1968 C.3     1  UNL1        0.1712
      6 C         144.0236  139.7188  161.9378 C.3     1  UNL1        0.1729
      7 C         144.6089  141.0396  161.5341 C.3     1  UNL1        0.1147
      8 N         145.4312  141.8258  162.5118 N.3     1  UNL1       -0.2697
      9 C         145.6682  141.2911  163.8930 C.3     1  UNL1        0.0723
     10 C         145.0830  139.9704  164.2967 C.3     1  UNL1        0.0209
     11 C         144.2606  139.1842  163.3190 C.3     1  UNL1        0.0429
     12 C         144.4073  140.0857  162.3940 C.3     1  UNL1        0.0209
     13 C         144.7195  140.7901  162.1787 C.3     1  UNL1        0.0723
     14 O         143.7029  140.1234  160.5294 O.2     1  UNL1       -0.4536
     15 C         143.3750  135.8509  156.4096 C.ar    1  UNL1        0.0858
     16 C         142.7316  136.7030  157.4633 C.ar    1  UNL1        0.0537
     17 C         142.9549  138.1863  157.4678 C.ar    1  UNL1        0.1387
     18 N         143.8216  138.8175  156.4188 N.ar    1  UNL1       -0.2088
     19 C         144.4649  137.9654  155.3652 C.ar    1  UNL1        0.2000
     20 N         144.2416  136.4821  155.3607 N.ar    1  UNL1       -0.2239
     21 C         142.7050  131.4011  156.3961 C.ar    1  UNL1        0.0000
     22 C         141.8273  132.2942  155.5703 C.ar    1  UNL1        0.0000
     23 C         142.0506  133.7775  155.5748 C.ar    1  UNL1        0.0015
     24 C         143.1517  134.3676  156.4051 C.ar    1  UNL1        0.0178
     25 C         144.0294  133.4745  157.2309 C.ar    1  UNL1        0.0015
     26 C         143.8061  131.9912  157.2264 C.ar    1  UNL1        0.0000
@<TRIPOS>BOND
     1    21    22   ar
     2    22    23   ar
     3    23    24   ar
     4    24    15    1
     5    15    16   ar
     6    16    17   ar
     7    17     1    1
     8     1     3    1
     9     3     4    2
    10     4     5    1
    11     6     5    1
    12     6     7    1
    13     7     8    1
    14     8     9    1
    15     9    10    1
    16    10    11    1
    17    11    12    1
    18    12    13    1
    19     6    14    1
    20    17    18   ar
    21    18    19   ar
    22    19    20   ar
    23    24    25   ar
    24    25    26   ar
    25    26    21   ar
    26    20    15   ar
    27    14     3    1
    28    11     6    1
    29    13     8    1
    30     1     2    1
@<TRIPOS>MOLECULE
*****
 26 30 0 0 0
SMALL
GASTEIGER

@<TRIPOS>ATOM
      1 N         142.5010  138.3459  158.2629 N.pl3   1  UNL1       -0.2535
      2 H         142.8874  139.1897  157.9341 H       1  UNL1        0.1579
      3 C         142.2562  138.1546  159.7303 C.2     1  UNL1        0.2847
      4 N         143.3081  137.9582  160.7814 N.2     1  UNL1       -0.2204
      5 C         142.6184  137.8083  162.1050 C.3     1  UNL1        0.1712
      6 C         141.1403  137.9121  161.8720 C.3     1  UNL1        0.1729
      7 C         139.6959  138.0354  161.4868 C.3     1  UNL1        0.1147
      8 N         138.6290  137.9416  162.5370 N.3     1  UNL1       -0.2697
      9 C         139.0065  137.7246  163.9724 C.3     1  UNL1        0.0723
     10 C         140.4509  137.6014  164.3576 C.3     1  UNL1        0.0209
     11 C         141.5178  137.6951  163.3074 C.3     1  UNL1        0.0429
     12 C         140.6424  137.8684  162.3621 C.3     1  UNL1        0.0209
     13 C         139.8720  137.9341  162.1566 C.3     1  UNL1        0.0723
     14 O         140.9164  138.1262  160.4043 O.2     1  UNL1       -0.4536
     15 C         142.6037  134.8827  156.3274 C.ar    1  UNL1        0.0858
     16 C         142.9477  135.9770  157.2941 C.ar    1  UNL1        0.0537
     17 C         142.1571  137.2517  157.2962 C.ar    1  UNL1        0.1387
     18 N         141.0225  137.4322  156.3317 N.ar    1  UNL1       -0.2088
     19 C         140.6786  136.3380  155.3651 C.ar    1  UNL1        0.2000
     20 N         141.4693  135.0633  155.3630 N.ar    1  UNL1       -0.2239
     21 C         144.9756  131.0586  156.3211 C.ar    1  UNL1        0.0000
     22 C         144.0573  131.3735  155.1776 C.ar    1  UNL1        0.0000
     23 C         143.2666  132.6482  155.1797 C.ar    1  UNL1        0.0015
     24 C         143.3943  133.6080  156.3253 C.ar    1  UNL1        0.0178
     25 C         144.3127  133.2931  157.4688 C.ar    1  UNL1        0.0015
     26 C         145.1033  132.0184  157.4667 C.ar    1  UNL1        0.0000
@<TRIPOS>BOND
     1    21    22   ar
     2    22    23   ar
     3    23    24   ar
     4    24    15    1
     5    15    16   ar
     6    16    17   ar
     7    17     1    1
     8     1     3    1
     9     3     4    2
    10     4     5    1
    11     6     5    1
    12     6     7    1
    13     7     8    1
    14     8     9    1
    15     9    10    1
    16    10    11    1
    17    11    12    1
    18    12    13    1
    19     6    14    1
    20    17    18   ar
    21    18    19   ar
    22    19    20   ar
    23    24    25   ar
    24    25    26   ar
    25    26    21   ar
    26    20    15   ar
    27    14     3    1
    28    11     6    1
    29    13     8    1
    30     1     2    1
