@<TRIPOS>MOLECULE
*****
 38 43 0 0 0
SMALL
GASTEIGER

@<TRIPOS>ATOM
      1 N         142.6272  136.2231  156.6743 N.ar    1  UNL1       -0.3249
      2 C         142.4730  137.2358  157.7701 C.ar    1  UNL1        0.0716
      3 C         141.2723  138.0784  157.4570 C.ar    1  UNL1       -0.0016
      4 C         140.6843  137.5865  156.1676 C.ar    1  UNL1        0.0131
      5 C         139.4946  138.0346  155.3715 C.ar    1  UNL1       -0.0016
      6 C         139.1422  137.3361  154.0918 C.ar    1  UNL1       -0.0002
      7 C         139.9796  136.1895  153.6081 C.ar    1  UNL1        0.0015
      8 C         141.1693  135.7414  154.4041 C.ar    1  UNL1        0.0172
      9 C         141.5217  136.4399  155.6839 C.ar    1  UNL1        0.0596
     10 C         138.8473  139.1924  156.0864 C.2     1  UNL1       -0.0076
     11 C         137.6348  139.7494  155.4011 C.2     1  UNL1       -0.0183
     12 C         136.8950  140.9049  156.0075 C.3     1  UNL1        0.1182
     13 C         137.3678  141.5034  157.2991 C.3     1  UNL1        0.1086
     14 N         138.5803  140.9464  157.9844 N.am    1  UNL1       -0.2607
     15 C         139.0531  141.5448  159.2761 C.2     1  UNL1        0.3079
     16 O         140.2656  140.9878  159.9614 O.2     1  UNL1       -0.2522
     17 N         138.3134  142.7003  159.8824 N.am    1  UNL1       -0.2681
     18 C         139.3200  139.7909  157.3781 C.3     1  UNL1        0.1034
     19 C         140.5325  139.2339  158.0634 C.3     1  UNL1        0.0523
     20 H         137.5176  143.0658  159.4326 H       1  UNL1        0.1564
     21 C         135.6826  141.4619  155.3222 C.2     1  UNL1        0.2309
     22 O         135.8397  142.4615  154.2149 O.2     1  UNL1       -0.2745
     23 N         134.3129  141.0191  155.7443 N.am    1  UNL1       -0.2792
     24 C         133.0149  141.4860  155.1549 C.3     1  UNL1        0.0935
     25 C         131.9005  140.7873  155.8761 C.3     1  UNL1        0.0233
     26 C         132.5099  139.8886  156.9111 C.3     1  UNL1        0.0233
     27 C         134.0009  140.0319  156.8296 C.3     1  UNL1        0.0935
     28 C         138.7861  143.2988  161.1741 C.ar    1  UNL1        0.0516
     29 C         139.9637  144.2277  161.1836 C.ar    1  UNL1        0.0147
     30 C         140.4365  144.8262  162.4752 C.ar    1  UNL1        0.0013
     31 C         139.7316  144.4957  163.7573 C.ar    1  UNL1        0.0001
     32 C         138.5539  143.5667  163.7478 C.ar    1  UNL1        0.0013
     33 C         138.0811  142.9682  162.4562 C.ar    1  UNL1        0.0147
     34 C         143.6987  135.1773  156.5846 C.3     1  UNL1        0.1233
     35 C         143.5974  133.9272  157.4075 C.3     1  UNL1        0.0969
     36 C         144.2729  132.0368  155.7582 C.3     1  UNL1        0.0897
     37 N         144.4480  132.7379  157.0727 N.3     1  UNL1       -0.2687
     38 C         145.4737  132.2498  158.0522 C.3     1  UNL1        0.0897
@<TRIPOS>BOND
     1    36    37    1
     2    37    38    1
     3    37    35    1
     4    35    34    1
     5    34     1    1
     6     1     2   ar
     7     2     3   ar
     8     3     4   ar
     9     4     5   ar
    10     5     6   ar
    11     6     7   ar
    12     7     8   ar
    13     8     9   ar
    14     5    10    1
    15    10    11    2
    16    11    12    1
    17    12    21    1
    18    21    22    2
    19    21    23   am
    20    23    24    1
    21    24    25    1
    22    25    26    1
    23    26    27    1
    24    12    13    1
    25    13    14    1
    26    14    15   am
    27    15    16    2
    28    15    17   am
    29    17    28    1
    30    28    29   ar
    31    29    30   ar
    32    30    31   ar
    33    31    32   ar
    34    32    33   ar
    35    14    18    1
    36    18    19    1
    37     9     1   ar
    38    18    10    1
    39    19     3    1
    40     9     4   ar
    41    27    23    1
    42    33    28   ar
    43    17    20    1
@<TRIPOS>MOLECULE
*****
 38 43 0 0 0
SMALL
GASTEIGER

@<TRIPOS>ATOM
      1 N         135.1204  140.3714  155.6294 N.ar    1  UNL1       -0.3249
      2 C         135.9770  140.6530  156.8281 C.ar    1  UNL1        0.0716
      3 C         136.8100  141.8639  156.5285 C.ar    1  UNL1       -0.0016
      4 C         136.4683  142.3307  155.1444 C.ar    1  UNL1        0.0131
      5 C         136.9730  143.4765  154.3184 C.ar    1  UNL1       -0.0016
      6 C         136.4336  143.6999  152.9368 C.ar    1  UNL1       -0.0002
      7 C         135.3894  142.7776  152.3811 C.ar    1  UNL1        0.0015
      8 C         134.8846  141.6317  153.2072 C.ar    1  UNL1        0.0172
      9 C         135.4240  141.4083  154.5888 C.ar    1  UNL1        0.0596
     10 C         138.0052  144.2273  155.1192 C.2     1  UNL1       -0.0076
     11 C         138.6028  145.4090  154.4146 C.2     1  UNL1       -0.0183
     12 C         139.6435  146.2437  155.1006 C.3     1  UNL1        0.1182
     13 C         140.0865  145.8967  156.4910 C.3     1  UNL1        0.1086
     14 N         139.4889  144.7149  157.1956 N.am    1  UNL1       -0.2607
     15 C         139.9319  144.3679  158.5860 C.2     1  UNL1        0.3079
     16 O         139.3343  143.1862  159.2906 O.2     1  UNL1       -0.2522
     17 N         140.9725  145.2026  159.2718 N.am    1  UNL1       -0.2681
     18 C         138.4483  143.8803  156.5097 C.3     1  UNL1        0.1034
     19 C         137.8507  142.6985  157.2143 C.3     1  UNL1        0.0523
     20 H         141.3647  145.9782  158.8094 H       1  UNL1        0.1564
     21 C         140.2410  147.4254  154.3960 C.2     1  UNL1        0.2309
     22 O         141.3262  147.2232  153.3804 O.2     1  UNL1       -0.2745
     23 N         139.7532  148.8094  154.7070 N.am    1  UNL1       -0.2792
     24 C         140.2526  150.0804  154.0862 C.3     1  UNL1        0.0935
     25 C         139.4885  151.2219  154.6889 C.3     1  UNL1        0.0233
     26 C         138.5170  150.6563  155.6821 C.3     1  UNL1        0.0233
     27 C         138.6806  149.1653  155.6932 C.3     1  UNL1        0.0935
     28 C         141.4156  144.8555  160.6623 C.ar    1  UNL1        0.0516
     29 C         140.7459  145.4925  161.8437 C.ar    1  UNL1        0.0147
     30 C         141.1889  145.1455  163.2341 C.ar    1  UNL1        0.0013
     31 C         142.3016  144.1616  163.4431 C.ar    1  UNL1        0.0001
     32 C         142.9714  143.5246  162.2617 C.ar    1  UNL1        0.0013
     33 C         142.5283  143.8716  160.8712 C.ar    1  UNL1        0.0147
     34 C         134.1335  139.2499  155.4948 C.3     1  UNL1        0.1233
     35 C         133.0733  139.0546  156.5378 C.3     1  UNL1        0.0969
     36 C         131.8532  141.1962  155.7162 C.3     1  UNL1        0.0897
     37 N         131.8885  139.9734  156.5843 N.3     1  UNL1       -0.2687
     38 C         130.7391  139.6694  157.4988 C.3     1  UNL1        0.0897
@<TRIPOS>BOND
     1    36    37    1
     2    37    38    1
     3    37    35    1
     4    35    34    1
     5    34     1    1
     6     1     2   ar
     7     2     3   ar
     8     3     4   ar
     9     4     5   ar
    10     5     6   ar
    11     6     7   ar
    12     7     8   ar
    13     8     9   ar
    14     5    10    1
    15    10    11    2
    16    11    12    1
    17    12    21    1
    18    21    22    2
    19    21    23   am
    20    23    24    1
    21    24    25    1
    22    25    26    1
    23    26    27    1
    24    12    13    1
    25    13    14    1
    26    14    15   am
    27    15    16    2
    28    15    17   am
    29    17    28    1
    30    28    29   ar
    31    29    30   ar
    32    30    31   ar
    33    31    32   ar
    34    32    33   ar
    35    14    18    1
    36    18    19    1
    37     9     1   ar
    38    18    10    1
    39    19     3    1
    40     9     4   ar
    41    27    23    1
    42    33    28   ar
    43    17    20    1
@<TRIPOS>MOLECULE
*****
 38 43 0 0 0
SMALL
GASTEIGER

@<TRIPOS>ATOM
      1 N         143.9416  141.3019  163.6393 N.ar    1  UNL1       -0.3249
      2 C         144.5367  141.9267  162.4123 C.ar    1  UNL1        0.0716
      3 C         144.1344  141.0980  161.2285 C.ar    1  UNL1       -0.0016
      4 C         143.2906  139.9611  161.7239 C.ar    1  UNL1        0.0131
      5 C         142.6153  138.8273  161.0108 C.ar    1  UNL1       -0.0016
      6 C         141.8209  137.8195  161.7875 C.ar    1  UNL1       -0.0002
      7 C         141.7018  137.9456  163.2774 C.ar    1  UNL1        0.0015
      8 C         142.3771  139.0793  163.9906 C.ar    1  UNL1        0.0172
      9 C         143.1715  140.0871  163.2138 C.ar    1  UNL1        0.0596
     10 C         142.9015  138.9493  159.5365 C.2     1  UNL1       -0.0076
     11 C         142.2850  137.8749  158.6904 C.2     1  UNL1       -0.0183
     12 C         142.4922  137.8789  157.2047 C.3     1  UNL1        0.1182
     13 C         143.3158  138.9572  156.5652 C.3     1  UNL1        0.1086
     14 N         143.9322  140.0315  157.4112 N.am    1  UNL1       -0.2607
     15 C         144.7558  141.1098  156.7717 C.2     1  UNL1        0.3079
     16 O         145.3722  142.1842  157.6178 O.2     1  UNL1       -0.2522
     17 N         144.9629  141.1137  155.2861 N.am    1  UNL1       -0.2681
     18 C         143.7251  140.0276  158.8968 C.3     1  UNL1        0.1034
     19 C         144.3415  141.1020  159.7429 C.3     1  UNL1        0.0523
     20 H         144.5584  140.4086  154.7308 H       1  UNL1        0.1564
     21 C         141.8758  136.8046  156.3588 C.2     1  UNL1        0.2309
     22 O         140.7688  137.1435  155.4050 O.2     1  UNL1       -0.2745
     23 N         142.3664  135.3911  156.4667 N.am    1  UNL1       -0.2792
     24 C         141.8497  134.2168  155.6894 C.3     1  UNL1        0.0935
     25 C         142.6237  133.0038  156.1130 C.3     1  UNL1        0.0233
     26 C         143.6187  133.4285  157.1522 C.3     1  UNL1        0.0233
     27 C         143.4597  134.9039  157.3707 C.3     1  UNL1        0.0935
     28 C         145.7866  142.1920  154.6465 C.ar    1  UNL1        0.0516
     29 C         145.1213  143.4231  154.1064 C.ar    1  UNL1        0.0147
     30 C         145.9448  144.5014  153.4668 C.ar    1  UNL1        0.0013
     31 C         147.4336  144.3485  153.3673 C.ar    1  UNL1        0.0001
     32 C         148.0990  143.1174  153.9074 C.ar    1  UNL1        0.0013
     33 C         147.2754  142.0391  154.5470 C.ar    1  UNL1        0.0147
     34 C         144.0905  141.8038  165.0450 C.3     1  UNL1        0.1233
     35 C         143.0582  142.7240  165.6261 C.3     1  UNL1        0.0969
     36 C         142.1688  144.5142  163.9667 C.3     1  UNL1        0.0897
     37 N         141.9569  143.2585  164.7593 N.3     1  UNL1       -0.2687
     38 C         140.6437  142.5375  164.6851 C.3     1  UNL1        0.0897
@<TRIPOS>BOND
     1    36    37    1
     2    37    38    1
     3    37    35    1
     4    35    34    1
     5    34     1    1
     6     1     2   ar
     7     2     3   ar
     8     3     4   ar
     9     4     5   ar
    10     5     6   ar
    11     6     7   ar
    12     7     8   ar
    13     8     9   ar
    14     5    10    1
    15    10    11    2
    16    11    12    1
    17    12    21    1
    18    21    22    2
    19    21    23   am
    20    23    24    1
    21    24    25    1
    22    25    26    1
    23    26    27    1
    24    12    13    1
    25    13    14    1
    26    14    15   am
    27    15    16    2
    28    15    17   am
    29    17    28    1
    30    28    29   ar
    31    29    30   ar
    32    30    31   ar
    33    31    32   ar
    34    32    33   ar
    35    14    18    1
    36    18    19    1
    37     9     1   ar
    38    18    10    1
    39    19     3    1
    40     9     4   ar
    41    27    23    1
    42    33    28   ar
    43    17    20    1
@<TRIPOS>MOLECULE
*****
 38 43 0 0 0
SMALL
GASTEIGER

@<TRIPOS>ATOM
      1 N         139.7225  139.8478  164.7090 N.ar    1  UNL1       -0.3249
      2 C         140.3258  139.0089  163.6217 C.ar    1  UNL1        0.0716
      3 C         140.0298  139.6699  162.3081 C.ar    1  UNL1       -0.0016
      4 C         139.2435  140.9172  162.5836 C.ar    1  UNL1        0.0131
      5 C         138.6759  141.9671  161.6750 C.ar    1  UNL1       -0.0016
      6 C         137.9184  143.1270  162.2502 C.ar    1  UNL1       -0.0002
      7 C         137.7285  143.2369  163.7340 C.ar    1  UNL1        0.0015
      8 C         138.2961  142.1870  164.6427 C.ar    1  UNL1        0.0172
      9 C         139.0536  141.0272  164.0675 C.ar    1  UNL1        0.0596
     10 C         139.0152  141.6049  160.2523 C.2     1  UNL1       -0.0076
     11 C         138.5079  142.5724  159.2244 C.2     1  UNL1       -0.0183
     12 C         138.7768  142.3297  157.7687 C.3     1  UNL1        0.1182
     13 C         139.5530  141.1194  157.3411 C.3     1  UNL1        0.1086
     14 N         140.0603  140.1519  158.3690 N.am    1  UNL1       -0.2607
     15 C         140.8364  138.9417  157.9413 C.2     1  UNL1        0.3079
     16 O         141.3437  137.9742  158.9692 O.2     1  UNL1       -0.2522
     17 N         141.1053  138.6990  156.4857 N.am    1  UNL1       -0.2681
     18 C         139.7914  140.3946  159.8246 C.3     1  UNL1        0.1034
     19 C         140.2987  139.4271  160.8525 C.3     1  UNL1        0.0523
     20 H         140.7723  139.3340  155.8111 H       1  UNL1        0.1564
     21 C         138.2695  143.2972  156.7409 C.2     1  UNL1        0.2309
     22 O         136.9418  143.0648  156.0829 O.2     1  UNL1       -0.2745
     23 N         139.0901  144.4972  156.3711 N.am    1  UNL1       -0.2792
     24 C         138.7152  145.5459  155.3663 C.3     1  UNL1        0.0935
     25 C         139.8230  146.5560  155.3153 C.3     1  UNL1        0.0233
     26 C         140.8825  146.1315  156.2887 C.3     1  UNL1        0.0233
     27 C         140.4295  144.8591  156.9412 C.3     1  UNL1        0.0935
     28 C         141.8815  137.4887  156.0580 C.ar    1  UNL1        0.0516
     29 C         141.1600  136.2250  155.6945 C.ar    1  UNL1        0.0147
     30 C         141.9361  135.0147  155.2668 C.ar    1  UNL1        0.0013
     31 C         143.4337  135.0683  155.2026 C.ar    1  UNL1        0.0001
     32 C         144.1553  136.3322  155.5661 C.ar    1  UNL1        0.0013
     33 C         143.3792  137.5424  155.9938 C.ar    1  UNL1        0.0147
     34 C         139.7782  139.5582  166.1797 C.3     1  UNL1        0.1233
     35 C         140.9260  140.0660  167.0012 C.3     1  UNL1        0.0969
     36 C         142.0703  139.6265  169.2919 C.3     1  UNL1        0.0897
     37 N         140.8575  140.0137  168.4987 N.3     1  UNL1       -0.2687
     38 C         139.5763  140.3487  169.2031 C.3     1  UNL1        0.0897
@<TRIPOS>BOND
     1    36    37    1
     2    37    38    1
     3    37    35    1
     4    35    34    1
     5    34     1    1
     6     1     2   ar
     7     2     3   ar
     8     3     4   ar
     9     4     5   ar
    10     5     6   ar
    11     6     7   ar
    12     7     8   ar
    13     8     9   ar
    14     5    10    1
    15    10    11    2
    16    11    12    1
    17    12    21    1
    18    21    22    2
    19    21    23   am
    20    23    24    1
    21    24    25    1
    22    25    26    1
    23    26    27    1
    24    12    13    1
    25    13    14    1
    26    14    15   am
    27    15    16    2
    28    15    17   am
    29    17    28    1
    30    28    29   ar
    31    29    30   ar
    32    30    31   ar
    33    31    32   ar
    34    32    33   ar
    35    14    18    1
    36    18    19    1
    37     9     1   ar
    38    18    10    1
    39    19     3    1
    40     9     4   ar
    41    27    23    1
    42    33    28   ar
    43    17    20    1
@<TRIPOS>MOLECULE
*****
 38 43 0 0 0
SMALL
GASTEIGER

@<TRIPOS>ATOM
      1 N         143.1845  140.0105  164.2645 N.ar    1  UNL1       -0.3249
      2 C         142.9626  138.8837  163.2995 C.ar    1  UNL1        0.0716
      3 C         143.1963  139.4077  161.9135 C.ar    1  UNL1       -0.0016
      4 C         143.5626  140.8583  162.0221 C.ar    1  UNL1        0.0131
      5 C         143.9019  141.8881  160.9855 C.ar    1  UNL1       -0.0016
      6 C         144.2339  143.2903  161.4019 C.ar    1  UNL1       -0.0002
      7 C         144.2266  143.6628  162.8549 C.ar    1  UNL1        0.0015
      8 C         143.8873  142.6330  163.8914 C.ar    1  UNL1        0.0172
      9 C         143.5553  141.2308  163.4750 C.ar    1  UNL1        0.0596
     10 C         143.8320  141.2418  159.6262 C.2     1  UNL1       -0.0076
     11 C         144.1498  142.1588  158.4824 C.2     1  UNL1       -0.0183
     12 C         144.1166  141.6415  157.0748 C.3     1  UNL1        0.1182
     13 C         143.7655  140.2073  156.8109 C.3     1  UNL1        0.1086
     14 N         143.4477  139.2902  157.9546 N.am    1  UNL1       -0.2607
     15 C         143.0966  137.8560  157.6908 C.2     1  UNL1        0.3079
     16 O         142.7788  136.9390  158.8345 O.2     1  UNL1       -0.2522
     17 N         143.0634  137.3387  156.2832 N.am    1  UNL1       -0.2681
     18 C         143.4809  139.8075  159.3622 C.3     1  UNL1        0.1034
     19 C         143.1631  138.8905  160.5060 C.3     1  UNL1        0.0523
     20 H         143.2720  137.9406  155.5325 H       1  UNL1        0.1564
     21 C         144.4344  142.5585  155.9312 C.2     1  UNL1        0.2309
     22 O         143.3565  143.4131  155.3331 O.2     1  UNL1       -0.2745
     23 N         145.8304  142.6210  155.3857 N.am    1  UNL1       -0.2792
     24 C         146.2958  143.4853  154.2514 C.3     1  UNL1        0.0935
     25 C         147.7590  143.2287  154.0433 C.3     1  UNL1        0.0233
     26 C         148.1978  142.2058  155.0490 C.3     1  UNL1        0.0233
     27 C         147.0058  141.8303  155.8786 C.3     1  UNL1        0.0935
     28 C         142.7123  135.9044  156.0193 C.ar    1  UNL1        0.0516
     29 C         141.4258  135.5622  155.3282 C.ar    1  UNL1        0.0147
     30 C         141.0746  134.1279  155.0643 C.ar    1  UNL1        0.0013
     31 C         142.0101  133.0360  155.4914 C.ar    1  UNL1        0.0001
     32 C         143.2967  133.3782  156.1825 C.ar    1  UNL1        0.0013
     33 C         143.6478  134.8125  156.4464 C.ar    1  UNL1        0.0147
     34 C         143.0578  139.9309  165.7570 C.3     1  UNL1        0.1233
     35 C         141.8048  139.3850  166.3753 C.3     1  UNL1        0.0969
     36 C         142.3965  139.9168  168.8486 C.3     1  UNL1        0.0897
     37 N         141.3857  139.8356  167.7433 N.3     1  UNL1       -0.2687
     38 C         139.9559  140.2048  168.0060 C.3     1  UNL1        0.0897
@<TRIPOS>BOND
     1    36    37    1
     2    37    38    1
     3    37    35    1
     4    35    34    1
     5    34     1    1
     6     1     2   ar
     7     2     3   ar
     8     3     4   ar
     9     4     5   ar
    10     5     6   ar
    11     6     7   ar
    12     7     8   ar
    13     8     9   ar
    14     5    10    1
    15    10    11    2
    16    11    12    1
    17    12    21    1
    18    21    22    2
    19    21    23   am
    20    23    24    1
    21    24    25    1
    22    25    26    1
    23    26    27    1
    24    12    13    1
    25    13    14    1
    26    14    15   am
    27    15    16    2
    28    15    17   am
    29    17    28    1
    30    28    29   ar
    31    29    30   ar
    32    30    31   ar
    33    31    32   ar
    34    32    33   ar
    35    14    18    1
    36    18    19    1
    37     9     1   ar
    38    18    10    1
    39    19     3    1
    40     9     4   ar
    41    27    23    1
    42    33    28   ar
    43    17    20    1
@<TRIPOS>MOLECULE
*****
 38 43 0 0 0
SMALL
GASTEIGER

@<TRIPOS>ATOM
      1 N         139.6314  140.7270  165.1965 N.ar    1  UNL1       -0.3249
      2 C         139.9760  139.8158  164.0559 C.ar    1  UNL1        0.0716
      3 C         140.2402  140.6648  162.8479 C.ar    1  UNL1       -0.0016
      4 C         140.0589  142.1008  163.2419 C.ar    1  UNL1        0.0131
      5 C         140.1877  143.3783  162.4665 C.ar    1  UNL1       -0.0016
      6 C         139.9404  144.6942  163.1426 C.ar    1  UNL1       -0.0002
      7 C         139.5641  144.7326  164.5941 C.ar    1  UNL1        0.0015
      8 C         139.4352  143.4551  165.3695 C.ar    1  UNL1        0.0172
      9 C         139.6826  142.1392  164.6934 C.ar    1  UNL1        0.0596
     10 C         140.5718  143.0425  161.0487 C.2     1  UNL1       -0.0076
     11 C         140.7376  144.2313  160.1491 C.2     1  UNL1       -0.0183
     12 C         141.1190  144.0365  158.7115 C.3     1  UNL1        0.1182
     13 C         141.3345  142.6530  158.1735 C.3     1  UNL1        0.1086
     14 N         141.1687  141.4642  159.0731 N.am    1  UNL1       -0.2607
     15 C         141.3842  140.0807  158.5352 C.2     1  UNL1        0.3079
     16 O         141.2184  138.8919  159.4348 O.2     1  UNL1       -0.2522
     17 N         141.7656  139.8860  157.0976 N.am    1  UNL1       -0.2681
     18 C         140.7874  141.6589  160.5107 C.3     1  UNL1        0.1034
     19 C         140.6216  140.4701  161.4103 C.3     1  UNL1        0.0523
     20 H         141.8744  140.6662  156.5072 H       1  UNL1        0.1564
     21 C         141.2848  145.2253  157.8120 C.2     1  UNL1        0.2309
     22 O         142.4594  146.1414  157.9884 O.2     1  UNL1       -0.2745
     23 N         140.2758  145.4980  156.7360 N.am    1  UNL1       -0.2792
     24 C         140.3090  146.6416  155.7657 C.3     1  UNL1        0.0935
     25 C         139.1103  146.5255  154.8714 C.3     1  UNL1        0.0233
     26 C         138.3365  145.3101  155.2889 C.3     1  UNL1        0.0233
     27 C         139.0568  144.6752  156.4413 C.3     1  UNL1        0.0935
     28 C         141.9811  138.5024  156.5595 C.ar    1  UNL1        0.0516
     29 C         140.8034  137.6352  156.2269 C.ar    1  UNL1        0.0147
     30 C         141.0189  136.2517  155.6888 C.ar    1  UNL1        0.0013
     31 C         142.4122  135.7355  155.4835 C.ar    1  UNL1        0.0001
     32 C         143.5900  136.6027  155.8162 C.ar    1  UNL1        0.0013
     33 C         143.3745  137.9862  156.3542 C.ar    1  UNL1        0.0147
     34 C         139.2947  140.3008  166.5947 C.3     1  UNL1        0.1233
     35 C         140.3817  140.1632  167.6191 C.3     1  UNL1        0.0969
     36 C         142.3722  141.8105  167.3465 C.3     1  UNL1        0.0897
     37 N         141.8088  140.4245  167.2382 N.3     1  UNL1       -0.2687
     38 C         142.6725  139.3000  166.7489 C.3     1  UNL1        0.0897
@<TRIPOS>BOND
     1    36    37    1
     2    37    38    1
     3    37    35    1
     4    35    34    1
     5    34     1    1
     6     1     2   ar
     7     2     3   ar
     8     3     4   ar
     9     4     5   ar
    10     5     6   ar
    11     6     7   ar
    12     7     8   ar
    13     8     9   ar
    14     5    10    1
    15    10    11    2
    16    11    12    1
    17    12    21    1
    18    21    22    2
    19    21    23   am
    20    23    24    1
    21    24    25    1
    22    25    26    1
    23    26    27    1
    24    12    13    1
    25    13    14    1
    26    14    15   am
    27    15    16    2
    28    15    17   am
    29    17    28    1
    30    28    29   ar
    31    29    30   ar
    32    30    31   ar
    33    31    32   ar
    34    32    33   ar
    35    14    18    1
    36    18    19    1
    37     9     1   ar
    38    18    10    1
    39    19     3    1
    40     9     4   ar
    41    27    23    1
    42    33    28   ar
    43    17    20    1
@<TRIPOS>MOLECULE
*****
 38 43 0 0 0
SMALL
GASTEIGER

@<TRIPOS>ATOM
      1 N         136.4815  140.7517  154.9067 N.ar    1  UNL1       -0.3249
      2 C         137.4008  140.9008  156.0826 C.ar    1  UNL1        0.0716
      3 C         138.4002  139.7833  156.0342 C.ar    1  UNL1       -0.0016
      4 C         138.0985  138.9435  154.8284 C.ar    1  UNL1        0.0131
      5 C         138.7505  137.7112  154.2749 C.ar    1  UNL1       -0.0016
      6 C         138.2166  137.0774  153.0247 C.ar    1  UNL1       -0.0002
      7 C         137.0308  137.6759  152.3279 C.ar    1  UNL1        0.0015
      8 C         136.3788  138.9082  152.8813 C.ar    1  UNL1        0.0172
      9 C         136.9127  139.5421  154.1316 C.ar    1  UNL1        0.0596
     10 C         139.9045  137.3363  155.1683 C.2     1  UNL1       -0.0076
     11 C         140.6566  136.1129  154.7354 C.2     1  UNL1       -0.0183
     12 C         141.8289  135.6303  155.5373 C.3     1  UNL1        0.1182
     13 C         142.2490  136.3711  156.7721 C.3     1  UNL1        0.1086
     14 N         141.4968  137.5946  157.2050 N.am    1  UNL1       -0.2607
     15 C         141.9169  138.3355  158.4397 C.2     1  UNL1        0.3079
     16 O         141.1647  139.5589  158.8727 O.2     1  UNL1       -0.2522
     17 N         143.0891  137.8529  159.2416 N.am    1  UNL1       -0.2681
     18 C         140.3246  138.0772  156.4031 C.3     1  UNL1        0.1034
     19 C         139.5724  139.3007  156.8361 C.3     1  UNL1        0.0523
     20 H         143.5827  137.0499  158.9574 H       1  UNL1        0.1564
     21 C         142.5810  134.4069  155.1043 C.2     1  UNL1        0.2309
     22 O         142.4567  133.9098  153.6946 O.2     1  UNL1       -0.2745
     23 N         143.4574  133.6805  156.0813 N.am    1  UNL1       -0.2792
     24 C         144.2658  132.4498  155.7947 C.3     1  UNL1        0.0935
     25 C         144.9873  132.0659  157.0525 C.3     1  UNL1        0.0233
     26 C         144.6248  133.0593  158.1164 C.3     1  UNL1        0.0233
     27 C         143.6793  134.0572  157.5161 C.3     1  UNL1        0.0935
     28 C         143.5092  138.5937  160.4764 C.ar    1  UNL1        0.0516
     29 C         144.0855  139.9739  160.3633 C.ar    1  UNL1        0.0147
     30 C         144.5056  140.7147  161.5980 C.ar    1  UNL1        0.0013
     31 C         144.3494  140.0754  162.9459 C.ar    1  UNL1        0.0001
     32 C         143.7730  138.6951  163.0590 C.ar    1  UNL1        0.0013
     33 C         143.3529  137.9543  161.8243 C.ar    1  UNL1        0.0147
     34 C         135.3327  141.6539  154.5658 C.3     1  UNL1        0.1233
     35 C         133.9615  141.0793  154.3659 C.3     1  UNL1        0.0969
     36 C         133.5865  139.9503  156.6755 C.3     1  UNL1        0.0897
     37 N         133.0832  140.8052  155.5505 N.3     1  UNL1       -0.2687
     38 C         131.7015  141.3860  155.6101 C.3     1  UNL1        0.0897
@<TRIPOS>BOND
     1    36    37    1
     2    37    38    1
     3    37    35    1
     4    35    34    1
     5    34     1    1
     6     1     2   ar
     7     2     3   ar
     8     3     4   ar
     9     4     5   ar
    10     5     6   ar
    11     6     7   ar
    12     7     8   ar
    13     8     9   ar
    14     5    10    1
    15    10    11    2
    16    11    12    1
    17    12    21    1
    18    21    22    2
    19    21    23   am
    20    23    24    1
    21    24    25    1
    22    25    26    1
    23    26    27    1
    24    12    13    1
    25    13    14    1
    26    14    15   am
    27    15    16    2
    28    15    17   am
    29    17    28    1
    30    28    29   ar
    31    29    30   ar
    32    30    31   ar
    33    31    32   ar
    34    32    33   ar
    35    14    18    1
    36    18    19    1
    37     9     1   ar
    38    18    10    1
    39    19     3    1
    40     9     4   ar
    41    27    23    1
    42    33    28   ar
    43    17    20    1
@<TRIPOS>MOLECULE
*****
 38 43 0 0 0
SMALL
GASTEIGER

@<TRIPOS>ATOM
      1 N         143.2993  133.1674  155.4720 N.ar    1  UNL1       -0.3249
      2 C         143.5260  133.7215  156.8474 C.ar    1  UNL1        0.0716
      3 C         143.0204  135.1336  156.8674 C.ar    1  UNL1       -0.0016
      4 C         142.4812  135.4521  155.5043 C.ar    1  UNL1        0.0131
      5 C         141.8554  136.6918  154.9371 C.ar    1  UNL1       -0.0016
      6 C         141.4021  136.7162  153.5074 C.ar    1  UNL1       -0.0002
      7 C         141.5745  135.5011  152.6451 C.ar    1  UNL1        0.0015
      8 C         142.2003  134.2615  153.2124 C.ar    1  UNL1        0.0172
      9 C         142.6536  134.2370  154.6420 C.ar    1  UNL1        0.0596
     10 C         141.8097  137.7429  156.0156 C.2     1  UNL1       -0.0076
     11 C         141.2043  139.0476  155.5898 C.2     1  UNL1       -0.0183
     12 C         141.0980  140.1799  156.5680 C.3     1  UNL1        0.1182
     13 C         141.5970  140.0074  157.9720 C.3     1  UNL1        0.1086
     14 N         142.2023  138.7026  158.3979 N.am    1  UNL1       -0.2607
     15 C         142.7013  138.5301  159.8019 C.2     1  UNL1        0.3079
     16 O         143.3067  137.2254  160.2277 O.2     1  UNL1       -0.2522
     17 N         142.5950  139.6623  160.7800 N.am    1  UNL1       -0.2681
     18 C         142.3087  137.5705  157.4197 C.3     1  UNL1        0.1034
     19 C         142.9140  136.2657  157.8456 C.3     1  UNL1        0.0523
     20 H         142.1977  140.5186  160.5005 H       1  UNL1        0.1564
     21 C         140.4927  141.4844  156.1421 C.2     1  UNL1        0.2309
     22 O         141.3720  142.5908  155.6395 O.2     1  UNL1       -0.2745
     23 N         139.0077  141.6827  156.2189 N.am    1  UNL1       -0.2792
     24 C         138.2630  142.9255  155.8302 C.3     1  UNL1        0.0935
     25 C         136.8019  142.6840  156.0689 C.3     1  UNL1        0.0233
     26 C         136.6437  141.2919  156.6050 C.3     1  UNL1        0.0233
     27 C         138.0070  140.6732  156.6977 C.3     1  UNL1        0.0935
     28 C         143.0940  139.4898  162.1841 C.ar    1  UNL1        0.0516
     29 C         144.4255  140.0545  162.5814 C.ar    1  UNL1        0.0147
     30 C         144.9246  139.8821  163.9854 C.ar    1  UNL1        0.0013
     31 C         144.0920  139.1450  164.9921 C.ar    1  UNL1        0.0001
     32 C         142.7603  138.5802  164.5947 C.ar    1  UNL1        0.0013
     33 C         142.2613  138.7527  163.1907 C.ar    1  UNL1        0.0147
     34 C         143.6558  131.7862  155.0081 C.3     1  UNL1        0.1233
     35 C         144.6230  130.9558  155.7987 C.3     1  UNL1        0.0969
     36 C         144.6414  130.0764  158.2433 C.3     1  UNL1        0.0897
     37 N         144.1165  130.0025  156.8401 N.3     1  UNL1       -0.2687
     38 C         143.0850  128.9753  156.4784 C.3     1  UNL1        0.0897
@<TRIPOS>BOND
     1    36    37    1
     2    37    38    1
     3    37    35    1
     4    35    34    1
     5    34     1    1
     6     1     2   ar
     7     2     3   ar
     8     3     4   ar
     9     4     5   ar
    10     5     6   ar
    11     6     7   ar
    12     7     8   ar
    13     8     9   ar
    14     5    10    1
    15    10    11    2
    16    11    12    1
    17    12    21    1
    18    21    22    2
    19    21    23   am
    20    23    24    1
    21    24    25    1
    22    25    26    1
    23    26    27    1
    24    12    13    1
    25    13    14    1
    26    14    15   am
    27    15    16    2
    28    15    17   am
    29    17    28    1
    30    28    29   ar
    31    29    30   ar
    32    30    31   ar
    33    31    32   ar
    34    32    33   ar
    35    14    18    1
    36    18    19    1
    37     9     1   ar
    38    18    10    1
    39    19     3    1
    40     9     4   ar
    41    27    23    1
    42    33    28   ar
    43    17    20    1
@<TRIPOS>MOLECULE
*****
 38 43 0 0 0
SMALL
GASTEIGER

@<TRIPOS>ATOM
      1 N         145.8555  141.9149  153.2208 N.ar    1  UNL1       -0.3249
      2 C         145.9518  140.4340  153.4396 C.ar    1  UNL1        0.0716
      3 C         144.8706  140.0361  154.4001 C.ar    1  UNL1       -0.0016
      4 C         144.1061  141.2711  154.7750 C.ar    1  UNL1        0.0131
      5 C         142.9343  141.4883  155.6860 C.ar    1  UNL1       -0.0016
      6 C         142.3713  142.8666  155.8680 C.ar    1  UNL1       -0.0002
      7 C         142.9800  144.0277  155.1392 C.ar    1  UNL1        0.0015
      8 C         144.1518  143.8105  154.2282 C.ar    1  UNL1        0.0172
      9 C         144.7148  142.4322  154.0462 C.ar    1  UNL1        0.0596
     10 C         142.5343  140.1617  156.2780 C.2     1  UNL1       -0.0076
     11 C         141.3662  140.2245  157.2169 C.2     1  UNL1       -0.0183
     12 C         140.8655  138.9734  157.8759 C.3     1  UNL1        0.1182
     13 C         141.5330  137.6596  157.5958 C.3     1  UNL1        0.1086
     14 N         142.7011  137.5968  156.6569 N.am    1  UNL1       -0.2607
     15 C         143.3685  136.2830  156.3769 C.2     1  UNL1        0.3079
     16 O         144.5367  136.2202  155.4379 O.2     1  UNL1       -0.2522
     17 N         142.8679  135.0320  157.0358 N.am    1  UNL1       -0.2681
     18 C         143.2018  138.8478  155.9980 C.3     1  UNL1        0.1034
     19 C         144.3699  138.7851  155.0590 C.3     1  UNL1        0.0523
     20 H         142.1012  135.0732  157.6520 H       1  UNL1        0.1564
     21 C         139.6975  139.0362  158.8147 C.2     1  UNL1        0.2309
     22 O         138.3631  139.5114  158.3211 O.2     1  UNL1       -0.2745
     23 N         139.8638  138.6238  160.2474 N.am    1  UNL1       -0.2792
     24 C         138.7926  138.6328  161.2974 C.3     1  UNL1        0.0935
     25 C         139.3973  138.1446  162.5805 C.3     1  UNL1        0.0233
     26 C         140.8421  137.8340  162.3233 C.3     1  UNL1        0.0233
     27 C         141.1304  138.1302  160.8814 C.3     1  UNL1        0.0935
     28 C         143.5353  133.7181  156.7557 C.ar    1  UNL1        0.0516
     29 C         144.5163  133.1508  157.7384 C.ar    1  UNL1        0.0147
     30 C         145.1838  131.8370  157.4584 C.ar    1  UNL1        0.0013
     31 C         144.8701  131.0904  156.1958 C.ar    1  UNL1        0.0001
     32 C         143.8890  131.6577  155.2131 C.ar    1  UNL1        0.0013
     33 C         143.2215  132.9715  155.4931 C.ar    1  UNL1        0.0147
     34 C         146.7439  142.7345  152.3327 C.3     1  UNL1        0.1233
     35 C         148.1871  142.3614  152.1653 C.3     1  UNL1        0.0969
     36 C         149.0493  142.1202  154.6043 C.3     1  UNL1        0.0897
     37 N         149.1811  142.7124  153.2324 N.3     1  UNL1       -0.2687
     38 C         150.3070  143.6555  152.9278 C.3     1  UNL1        0.0897
@<TRIPOS>BOND
     1    36    37    1
     2    37    38    1
     3    37    35    1
     4    35    34    1
     5    34     1    1
     6     1     2   ar
     7     2     3   ar
     8     3     4   ar
     9     4     5   ar
    10     5     6   ar
    11     6     7   ar
    12     7     8   ar
    13     8     9   ar
    14     5    10    1
    15    10    11    2
    16    11    12    1
    17    12    21    1
    18    21    22    2
    19    21    23   am
    20    23    24    1
    21    24    25    1
    22    25    26    1
    23    26    27    1
    24    12    13    1
    25    13    14    1
    26    14    15   am
    27    15    16    2
    28    15    17   am
    29    17    28    1
    30    28    29   ar
    31    29    30   ar
    32    30    31   ar
    33    31    32   ar
    34    32    33   ar
    35    14    18    1
    36    18    19    1
    37     9     1   ar
    38    18    10    1
    39    19     3    1
    40     9     4   ar
    41    27    23    1
    42    33    28   ar
    43    17    20    1
