@<TRIPOS>MOLECULE
*****
 43 47 0 0 0
SMALL
GASTEIGER

@<TRIPOS>ATOM
      1 C         140.9663  141.7390  165.7871 C.3     1  UNL1        0.0764
      2 C         140.8514  142.6541  164.6041 C.ar    1  UNL1        0.0181
      3 C         141.5576  142.3177  163.3243 C.ar    1  UNL1       -0.0009
      4 C         141.4427  143.2328  162.1413 C.ar    1  UNL1        0.0004
      5 C         142.1489  142.8964  160.8615 C.ar    1  UNL1        0.0067
      6 C         142.0340  143.8115  159.6785 C.ar    1  UNL1        0.0346
      7 BR        142.7403  143.4751  158.3986 Br      1  UNL1       -0.0490
      8 C         141.2129  145.0630  159.7755 C.ar    1  UNL1        0.0067
      9 C         140.5066  145.3994  161.0553 C.ar    1  UNL1        0.0006
     10 C         140.6215  144.4843  162.2382 C.ar    1  UNL1        0.0030
     11 C         139.9153  144.8207  163.5181 C.ar    1  UNL1        0.0366
     12 C         140.0302  143.9056  164.7010 C.ar    1  UNL1        0.1351
     13 O         139.3239  144.2420  165.9809 O.3     1  UNL1       -0.4717
     14 C         138.1500  145.1756  165.9667 C.3     1  UNL1        0.2525
     15 C         138.3878  139.1913  167.4030 C.ar    1  UNL1        0.2272
     16 C         139.3355  140.3442  167.2517 C.ar    1  UNL1        0.0540
     17 C         140.0186  140.5862  165.9384 C.ar    1  UNL1       -0.0064
     18 C         139.7541  139.6753  164.7764 C.ar    1  UNL1        0.0540
     19 C         138.8064  138.5225  164.9276 C.ar    1  UNL1        0.2270
     20 N         138.1233  138.2805  166.2410 N.ar    1  UNL1       -0.1767
     21 C         138.0878  139.7570  169.9209 C.3     1  UNL1        0.2542
     22 O         137.7047  138.9494  168.7163 O.3     1  UNL1       -0.4561
     23 O         138.5419  137.6116  163.7656 O.3     1  UNL1       -0.4640
     24 C         138.7950  138.0884  162.3661 C.3     1  UNL1        0.1678
     25 C         137.6881  138.7247  161.5788 C.3     1  UNL1        0.0473
     26 C         140.1550  137.9290  161.7538 C.3     1  UNL1        0.0473
     27 C         142.0288  141.9768  166.8188 C.3     1  UNL1        0.1186
     28 O         141.1153  142.9215  167.5419 O.3     1  UNL1       -0.3819
     29 H         140.2056  142.5877  167.4995 H       1  UNL1        0.2107
     30 C         142.9424  141.0320  166.0957 C.ar    1  UNL1        0.0369
     31 C         142.8643  139.5587  166.3663 C.ar    1  UNL1        0.0010
     32 C         143.7778  138.6139  165.6432 C.ar    1  UNL1       -0.0000
     33 C         144.7694  139.1424  164.6495 C.ar    1  UNL1        0.0031
     34 C         144.8474  140.6157  164.3790 C.ar    1  UNL1        0.0375
     35 C         145.7171  141.4230  163.4613 C.ar    1  UNL1        0.0437
     36 C         145.3410  142.8667  163.6173 C.ar    1  UNL1        0.1796
     37 O         144.2389  142.9517  164.6313 O.2     1  UNL1       -0.4507
     38 C         143.9339  141.5605  165.1021 C.ar    1  UNL1        0.1436
     39 C         143.0914  142.2145  167.8505 C.3     1  UNL1        0.0492
     40 C         142.7058  142.5457  169.2618 C.3     1  UNL1        0.0750
     41 N         142.0274  141.5155  170.1153 N.3     1  UNL1       -0.2702
     42 C         142.4547  140.0797  170.0400 C.3     1  UNL1        0.0897
     43 C         140.9216  141.9213  171.0442 C.3     1  UNL1        0.0897
@<TRIPOS>BOND
     1    21    22    1
     2    22    15    1
     3    15    16   ar
     4    16    17   ar
     5     1    17    1
     6     1     2    1
     7     2     3   ar
     8     3     4   ar
     9     4     5   ar
    10     5     6   ar
    11     6     7    1
    12     6     8   ar
    13     8     9   ar
    14     9    10   ar
    15    10    11   ar
    16    11    12   ar
    17    12    13    1
    18    13    14    1
    19     1    27    1
    20    27    28    1
    21    27    39    1
    22    39    40    1
    23    40    41    1
    24    41    42    1
    25    41    43    1
    26    27    30    1
    27    30    31   ar
    28    31    32   ar
    29    32    33   ar
    30    33    34   ar
    31    34    35   ar
    32    35    36   ar
    33    36    37   ar
    34    37    38   ar
    35    17    18   ar
    36    18    19   ar
    37    19    23    1
    38    23    24    1
    39    24    25    1
    40    24    26    1
    41    19    20   ar
    42    20    15   ar
    43    12     2   ar
    44    38    30   ar
    45    10     4   ar
    46    38    34   ar
    47    28    29    1
@<TRIPOS>MOLECULE
*****
 43 47 0 0 0
SMALL
GASTEIGER

@<TRIPOS>ATOM
      1 C         142.0503  142.4094  162.6223 C.3     1  UNL1        0.0764
      2 C         142.3720  142.4292  164.0873 C.ar    1  UNL1        0.0181
      3 C         141.2963  142.1520  165.0952 C.ar    1  UNL1       -0.0009
      4 C         141.6180  142.1718  166.5602 C.ar    1  UNL1        0.0004
      5 C         140.5423  141.8945  167.5681 C.ar    1  UNL1        0.0067
      6 C         140.8641  141.9144  169.0331 C.ar    1  UNL1        0.0346
      7 BR        139.7883  141.6371  170.0411 Br      1  UNL1       -0.0490
      8 C         142.2615  142.2114  169.4901 C.ar    1  UNL1        0.0067
      9 C         143.3372  142.4886  168.4821 C.ar    1  UNL1        0.0006
     10 C         143.0155  142.4688  167.0172 C.ar    1  UNL1        0.0030
     11 C         144.0912  142.7461  166.0092 C.ar    1  UNL1        0.0366
     12 C         143.7695  142.7262  164.5443 C.ar    1  UNL1        0.1351
     13 O         144.8452  143.0035  163.5363 O.3     1  UNL1       -0.4717
     14 C         145.7650  141.9023  163.0990 C.3     1  UNL1        0.2525
     15 C         143.3253  139.9537  159.7774 C.ar    1  UNL1        0.2272
     16 C         143.1048  141.2036  160.5769 C.ar    1  UNL1        0.0540
     17 C         142.2707  141.1595  161.8228 C.ar    1  UNL1       -0.0064
     18 C         141.6572  139.8656  162.2693 C.ar    1  UNL1        0.0540
     19 C         141.8777  138.6157  161.4699 C.ar    1  UNL1        0.2270
     20 N         142.7118  138.6597  160.2238 N.ar    1  UNL1       -0.1767
     21 C         143.5003  139.9373  157.1853 C.3     1  UNL1        0.2542
     22 O         144.1593  139.9977  158.5314 O.3     1  UNL1       -0.4561
     23 O         141.2642  137.3218  161.9164 O.3     1  UNL1       -0.4640
     24 C         140.4301  137.2778  163.1624 C.3     1  UNL1        0.1678
     25 C         138.9619  137.5771  163.0931 C.3     1  UNL1        0.0473
     26 C         141.0643  136.9345  164.4776 C.3     1  UNL1        0.0473
     27 C         141.5080  143.6395  161.9568 C.3     1  UNL1        0.1186
     28 O         142.9048  144.0790  161.6312 O.3     1  UNL1       -0.3819
     29 H         143.4418  143.3049  161.4004 H       1  UNL1        0.2107
     30 C         140.1113  143.2000  162.2824 C.ar    1  UNL1        0.0369
     31 C         139.4335  142.1656  161.4336 C.ar    1  UNL1        0.0010
     32 C         138.0368  141.7261  161.7592 C.ar    1  UNL1       -0.0000
     33 C         137.3179  142.3210  162.9337 C.ar    1  UNL1        0.0031
     34 C         137.9957  143.3554  163.7824 C.ar    1  UNL1        0.0375
     35 C         137.5416  144.1142  164.9940 C.ar    1  UNL1        0.0437
     36 C         138.6576  145.0227  165.4172 C.ar    1  UNL1        0.1796
     37 O         139.8016  144.8254  164.4672 O.2     1  UNL1       -0.4507
     38 C         139.3925  143.7949  163.4568 C.ar    1  UNL1        0.1436
     39 C         140.9658  144.8696  161.2913 C.3     1  UNL1        0.0492
     40 C         141.4344  145.2474  159.9173 C.3     1  UNL1        0.0750
     41 N         141.4476  144.2232  158.8215 N.3     1  UNL1       -0.2702
     42 C         142.7433  143.8361  158.1723 C.3     1  UNL1        0.0897
     43 C         140.1652  143.5861  158.3748 C.3     1  UNL1        0.0897
@<TRIPOS>BOND
     1    21    22    1
     2    22    15    1
     3    15    16   ar
     4    16    17   ar
     5     1    17    1
     6     1     2    1
     7     2     3   ar
     8     3     4   ar
     9     4     5   ar
    10     5     6   ar
    11     6     7    1
    12     6     8   ar
    13     8     9   ar
    14     9    10   ar
    15    10    11   ar
    16    11    12   ar
    17    12    13    1
    18    13    14    1
    19     1    27    1
    20    27    28    1
    21    27    39    1
    22    39    40    1
    23    40    41    1
    24    41    42    1
    25    41    43    1
    26    27    30    1
    27    30    31   ar
    28    31    32   ar
    29    32    33   ar
    30    33    34   ar
    31    34    35   ar
    32    35    36   ar
    33    36    37   ar
    34    37    38   ar
    35    17    18   ar
    36    18    19   ar
    37    19    23    1
    38    23    24    1
    39    24    25    1
    40    24    26    1
    41    19    20   ar
    42    20    15   ar
    43    12     2   ar
    44    38    30   ar
    45    10     4   ar
    46    38    34   ar
    47    28    29    1
@<TRIPOS>MOLECULE
*****
 43 47 0 0 0
SMALL
GASTEIGER

@<TRIPOS>ATOM
      1 C         140.2160  140.5797  163.2251 C.3     1  UNL1        0.0764
      2 C         140.0484  140.5235  164.7147 C.ar    1  UNL1        0.0181
      3 C         140.2937  141.7492  165.5438 C.ar    1  UNL1       -0.0009
      4 C         140.1261  141.6930  167.0334 C.ar    1  UNL1        0.0004
      5 C         140.3714  142.9187  167.8625 C.ar    1  UNL1        0.0067
      6 C         140.2038  142.8625  169.3520 C.ar    1  UNL1        0.0346
      7 BR        140.4491  144.0882  170.1812 Br      1  UNL1       -0.0490
      8 C         139.7909  141.5806  170.0124 C.ar    1  UNL1        0.0067
      9 C         139.5456  140.3548  169.1833 C.ar    1  UNL1        0.0006
     10 C         139.7132  140.4111  167.6938 C.ar    1  UNL1        0.0030
     11 C         139.4679  139.1853  166.8647 C.ar    1  UNL1        0.0366
     12 C         139.6355  139.2415  165.3751 C.ar    1  UNL1        0.1351
     13 O         139.3902  138.0158  164.5460 O.3     1  UNL1       -0.4717
     14 C         140.4937  137.0228  164.3307 C.3     1  UNL1        0.2525
     15 C         143.3637  139.7256  160.9640 C.ar    1  UNL1        0.2272
     16 C         141.9895  139.6634  161.5624 C.ar    1  UNL1        0.0540
     17 C         141.5900  140.6419  162.6268 C.ar    1  UNL1       -0.0064
     18 C         142.5646  141.6826  163.0928 C.ar    1  UNL1        0.0540
     19 C         143.9386  141.7448  162.4945 C.ar    1  UNL1        0.2270
     20 N         144.3382  140.7663  161.4301 N.ar    1  UNL1       -0.1767
     21 C         142.8600  137.5989  159.5593 C.3     1  UNL1        0.2542
     22 O         143.7632  138.7471  159.8997 O.3     1  UNL1       -0.4561
     23 O         144.9132  142.7855  162.9605 O.3     1  UNL1       -0.4640
     24 C         144.4734  143.8460  163.9261 C.3     1  UNL1        0.1678
     25 C         143.8317  145.1031  163.4183 C.3     1  UNL1        0.0473
     26 C         144.6753  143.6492  165.3993 C.3     1  UNL1        0.0473
     27 C         139.0094  140.5736  162.3339 C.3     1  UNL1        0.1186
     28 O         139.1952  139.1049  162.0924 O.3     1  UNL1       -0.3819
     29 H         139.4969  138.6784  162.9097 H       1  UNL1        0.2107
     30 C         138.8237  142.0423  162.5754 C.ar    1  UNL1        0.0369
     31 C         137.8962  142.5133  163.6560 C.ar    1  UNL1        0.0010
     32 C         137.7104  143.9821  163.8975 C.ar    1  UNL1       -0.0000
     33 C         138.4522  144.9798  163.0584 C.ar    1  UNL1        0.0031
     34 C         139.3797  144.5088  161.9777 C.ar    1  UNL1        0.0375
     35 C         140.2390  145.2519  160.9982 C.ar    1  UNL1        0.0437
     36 C         140.9557  144.2425  160.1513 C.ar    1  UNL1        0.1796
     37 O         140.5395  142.8754  160.6074 O.2     1  UNL1       -0.4507
     38 C         139.5655  143.0401  161.7362 C.ar    1  UNL1        0.1436
     39 C         137.8029  140.5676  161.4427 C.3     1  UNL1        0.0492
     40 C         137.7540  139.6555  160.2528 C.3     1  UNL1        0.0750
     41 N         138.5920  139.9531  159.0448 N.3     1  UNL1       -0.2702
     42 C         139.5672  138.9321  158.5385 C.3     1  UNL1        0.0897
     43 C         138.4548  141.2718  158.3431 C.3     1  UNL1        0.0897
@<TRIPOS>BOND
     1    21    22    1
     2    22    15    1
     3    15    16   ar
     4    16    17   ar
     5     1    17    1
     6     1     2    1
     7     2     3   ar
     8     3     4   ar
     9     4     5   ar
    10     5     6   ar
    11     6     7    1
    12     6     8   ar
    13     8     9   ar
    14     9    10   ar
    15    10    11   ar
    16    11    12   ar
    17    12    13    1
    18    13    14    1
    19     1    27    1
    20    27    28    1
    21    27    39    1
    22    39    40    1
    23    40    41    1
    24    41    42    1
    25    41    43    1
    26    27    30    1
    27    30    31   ar
    28    31    32   ar
    29    32    33   ar
    30    33    34   ar
    31    34    35   ar
    32    35    36   ar
    33    36    37   ar
    34    37    38   ar
    35    17    18   ar
    36    18    19   ar
    37    19    23    1
    38    23    24    1
    39    24    25    1
    40    24    26    1
    41    19    20   ar
    42    20    15   ar
    43    12     2   ar
    44    38    30   ar
    45    10     4   ar
    46    38    34   ar
    47    28    29    1
@<TRIPOS>MOLECULE
*****
 43 47 0 0 0
SMALL
GASTEIGER

@<TRIPOS>ATOM
      1 C         140.5084  141.2577  164.5170 C.3     1  UNL1        0.0764
      2 C         141.1645  140.3383  163.5299 C.ar    1  UNL1        0.0181
      3 C         140.6918  140.3053  162.1067 C.ar    1  UNL1       -0.0009
      4 C         141.3479  139.3859  161.1196 C.ar    1  UNL1        0.0004
      5 C         140.8752  139.3530  159.6964 C.ar    1  UNL1        0.0067
      6 C         141.5313  138.4336  158.7094 C.ar    1  UNL1        0.0346
      7 BR        141.0586  138.4006  157.2861 Br      1  UNL1       -0.0490
      8 C         142.6600  137.5472  159.1455 C.ar    1  UNL1        0.0067
      9 C         143.1327  137.5801  160.5687 C.ar    1  UNL1        0.0006
     10 C         142.4766  138.4995  161.5557 C.ar    1  UNL1        0.0030
     11 C         142.9493  138.5325  162.9790 C.ar    1  UNL1        0.0366
     12 C         142.2932  139.4519  163.9660 C.ar    1  UNL1        0.1351
     13 O         142.7659  139.4848  165.3893 O.3     1  UNL1       -0.4717
     14 C         143.8533  138.5551  165.8401 C.3     1  UNL1        0.2525
     15 C         138.3125  139.0967  167.0186 C.ar    1  UNL1        0.2272
     16 C         138.8807  139.6469  165.7440 C.ar    1  UNL1        0.0540
     17 C         139.9403  140.7075  165.7915 C.ar    1  UNL1       -0.0064
     18 C         140.4318  141.2179  167.1136 C.ar    1  UNL1        0.0540
     19 C         139.8637  140.6678  168.3882 C.ar    1  UNL1        0.2270
     20 N         138.8040  139.6071  168.3407 N.ar    1  UNL1       -0.1767
     21 C         136.5021  137.6698  168.2168 C.3     1  UNL1        0.2542
     22 O         137.2529  138.0361  166.9710 O.3     1  UNL1       -0.4561
     23 O         140.3552  141.1782  169.7103 O.3     1  UNL1       -0.4640
     24 C         141.1566  142.4446  169.7743 C.3     1  UNL1        0.1678
     25 C         142.6533  142.3819  169.8517 C.3     1  UNL1        0.0473
     26 C         140.4613  143.7736  169.7611 C.3     1  UNL1        0.0473
     27 C         140.4205  142.7273  164.2295 C.3     1  UNL1        0.1186
     28 O         138.9284  142.6171  164.1228 O.3     1  UNL1       -0.3819
     29 H         138.6028  141.9852  164.7828 H       1  UNL1        0.2107
     30 C         141.9127  142.8374  164.3362 C.ar    1  UNL1        0.0369
     31 C         142.5695  142.8477  165.6847 C.ar    1  UNL1        0.0010
     32 C         144.0616  142.9578  165.7913 C.ar    1  UNL1       -0.0000
     33 C         144.8970  143.0576  164.5495 C.ar    1  UNL1        0.0031
     34 C         144.2402  143.0473  163.2010 C.ar    1  UNL1        0.0375
     35 C         144.7993  143.1304  161.8116 C.ar    1  UNL1        0.0437
     36 C         143.6527  143.0717  160.8462 C.ar    1  UNL1        0.1796
     37 O         142.3849  142.9523  161.6390 O.2     1  UNL1       -0.4507
     38 C         142.7480  142.9372  163.0943 C.ar    1  UNL1        0.1436
     39 C         140.3326  144.1968  163.9420 C.3     1  UNL1        0.0492
     40 C         139.2850  144.7158  163.0022 C.3     1  UNL1        0.0750
     41 N         139.4575  144.5505  161.5214 N.3     1  UNL1       -0.2702
     42 C         140.1576  145.6112  160.7248 C.3     1  UNL1        0.0897
     43 C         138.9299  143.3242  160.8372 C.3     1  UNL1        0.0897
@<TRIPOS>BOND
     1    21    22    1
     2    22    15    1
     3    15    16   ar
     4    16    17   ar
     5     1    17    1
     6     1     2    1
     7     2     3   ar
     8     3     4   ar
     9     4     5   ar
    10     5     6   ar
    11     6     7    1
    12     6     8   ar
    13     8     9   ar
    14     9    10   ar
    15    10    11   ar
    16    11    12   ar
    17    12    13    1
    18    13    14    1
    19     1    27    1
    20    27    28    1
    21    27    39    1
    22    39    40    1
    23    40    41    1
    24    41    42    1
    25    41    43    1
    26    27    30    1
    27    30    31   ar
    28    31    32   ar
    29    32    33   ar
    30    33    34   ar
    31    34    35   ar
    32    35    36   ar
    33    36    37   ar
    34    37    38   ar
    35    17    18   ar
    36    18    19   ar
    37    19    23    1
    38    23    24    1
    39    24    25    1
    40    24    26    1
    41    19    20   ar
    42    20    15   ar
    43    12     2   ar
    44    38    30   ar
    45    10     4   ar
    46    38    34   ar
    47    28    29    1
@<TRIPOS>MOLECULE
*****
 43 47 0 0 0
SMALL
GASTEIGER

@<TRIPOS>ATOM
      1 C         142.0976  141.9593  162.7455 C.3     1  UNL1        0.0764
      2 C         142.3635  142.0813  164.2168 C.ar    1  UNL1        0.0181
      3 C         141.2795  141.7636  165.2037 C.ar    1  UNL1       -0.0009
      4 C         141.5453  141.8856  166.6749 C.ar    1  UNL1        0.0004
      5 C         140.4613  141.5679  167.6618 C.ar    1  UNL1        0.0067
      6 C         140.7271  141.6899  169.1330 C.ar    1  UNL1        0.0346
      7 BR        139.6431  141.3723  170.1199 Br      1  UNL1       -0.0490
      8 C         142.0770  142.1297  169.6172 C.ar    1  UNL1        0.0067
      9 C         143.1610  142.4474  168.6304 C.ar    1  UNL1        0.0006
     10 C         142.8951  142.3253  167.1592 C.ar    1  UNL1        0.0030
     11 C         143.9792  142.6430  166.1722 C.ar    1  UNL1        0.0366
     12 C         143.7133  142.5210  164.7011 C.ar    1  UNL1        0.1351
     13 O         144.7973  142.8387  163.7141 O.3     1  UNL1       -0.4717
     14 C         145.7809  141.7794  163.3136 C.3     1  UNL1        0.2525
     15 C         141.8171  138.0641  162.0391 C.ar    1  UNL1        0.2272
     16 C         141.6816  139.3949  162.7179 C.ar    1  UNL1        0.0540
     17 C         142.2331  140.6285  162.0667 C.ar    1  UNL1       -0.0064
     18 C         142.9199  140.5314  160.7368 C.ar    1  UNL1        0.0540
     19 C         143.0554  139.2007  160.0580 C.ar    1  UNL1        0.2270
     20 N         142.5039  137.9670  160.7092 N.ar    1  UNL1       -0.1767
     21 C         140.9782  136.8242  164.1625 C.3     1  UNL1        0.2542
     22 O         141.2656  136.8305  162.6903 O.3     1  UNL1       -0.4561
     23 O         143.7423  139.1036  158.7281 O.3     1  UNL1       -0.4640
     24 C         142.9309  139.0244  157.4689 C.3     1  UNL1        0.1678
     25 C         143.0912  137.8530  156.5458 C.3     1  UNL1        0.0473
     26 C         141.9592  140.1166  157.1329 C.3     1  UNL1        0.0473
     27 C         141.6964  143.1680  161.9531 C.3     1  UNL1        0.1186
     28 O         143.1397  143.4599  161.6675 O.3     1  UNL1       -0.3819
     29 H         143.6170  142.6267  161.5301 H       1  UNL1        0.2107
     30 C         140.2530  142.8761  162.2388 C.ar    1  UNL1        0.0369
     31 C         139.5149  141.8641  161.4136 C.ar    1  UNL1        0.0010
     32 C         138.0716  141.5723  161.6992 C.ar    1  UNL1       -0.0000
     33 C         137.3664  142.2924  162.8101 C.ar    1  UNL1        0.0031
     34 C         138.1045  143.3044  163.6352 C.ar    1  UNL1        0.0375
     35 C         137.6766  144.1654  164.7866 C.ar    1  UNL1        0.0437
     36 C         138.8554  144.9894  165.2125 C.ar    1  UNL1        0.1796
     37 O         140.0120  144.6377  164.3244 O.2     1  UNL1       -0.4507
     38 C         139.5478  143.5963  163.3496 C.ar    1  UNL1        0.1436
     39 C         141.2951  144.3768  161.1607 C.3     1  UNL1        0.0492
     40 C         141.0092  144.2508  159.6936 C.3     1  UNL1        0.0750
     41 N         142.0857  144.5464  158.6916 N.3     1  UNL1       -0.2702
     42 C         143.1593  143.5338  158.4234 C.3     1  UNL1        0.0897
     43 C         142.0885  145.8547  157.9578 C.3     1  UNL1        0.0897
@<TRIPOS>BOND
     1    21    22    1
     2    22    15    1
     3    15    16   ar
     4    16    17   ar
     5     1    17    1
     6     1     2    1
     7     2     3   ar
     8     3     4   ar
     9     4     5   ar
    10     5     6   ar
    11     6     7    1
    12     6     8   ar
    13     8     9   ar
    14     9    10   ar
    15    10    11   ar
    16    11    12   ar
    17    12    13    1
    18    13    14    1
    19     1    27    1
    20    27    28    1
    21    27    39    1
    22    39    40    1
    23    40    41    1
    24    41    42    1
    25    41    43    1
    26    27    30    1
    27    30    31   ar
    28    31    32   ar
    29    32    33   ar
    30    33    34   ar
    31    34    35   ar
    32    35    36   ar
    33    36    37   ar
    34    37    38   ar
    35    17    18   ar
    36    18    19   ar
    37    19    23    1
    38    23    24    1
    39    24    25    1
    40    24    26    1
    41    19    20   ar
    42    20    15   ar
    43    12     2   ar
    44    38    30   ar
    45    10     4   ar
    46    38    34   ar
    47    28    29    1
@<TRIPOS>MOLECULE
*****
 43 47 0 0 0
SMALL
GASTEIGER

@<TRIPOS>ATOM
      1 C         142.1787  140.6965  162.4761 C.3     1  UNL1        0.0764
      2 C         142.2935  140.4603  163.9530 C.ar    1  UNL1        0.0181
      3 C         141.0680  140.5037  164.8169 C.ar    1  UNL1       -0.0009
      4 C         141.1828  140.2675  166.2938 C.ar    1  UNL1        0.0004
      5 C         139.9574  140.3109  167.1577 C.ar    1  UNL1        0.0067
      6 C         140.0722  140.0747  168.6345 C.ar    1  UNL1        0.0346
      7 BR        138.8467  140.1182  169.4985 Br      1  UNL1       -0.0490
      8 C         141.4124  139.7949  169.2474 C.ar    1  UNL1        0.0067
      9 C         142.6378  139.7515  168.3834 C.ar    1  UNL1        0.0006
     10 C         142.5230  139.9877  166.9066 C.ar    1  UNL1        0.0030
     11 C         143.7485  139.9443  166.0426 C.ar    1  UNL1        0.0366
     12 C         143.6337  140.1805  164.5658 C.ar    1  UNL1        0.1351
     13 O         144.8591  140.1371  163.7018 O.3     1  UNL1       -0.4717
     14 C         145.7718  141.3255  163.6345 C.3     1  UNL1        0.2525
     15 C         142.1766  143.9114  160.1491 C.ar    1  UNL1        0.2272
     16 C         142.4808  142.5370  160.6674 C.ar    1  UNL1        0.0540
     17 C         141.8745  142.0709  161.9578 C.ar    1  UNL1       -0.0064
     18 C         140.9641  142.9791  162.7300 C.ar    1  UNL1        0.0540
     19 C         140.6599  144.3534  162.2117 C.ar    1  UNL1        0.2270
     20 N         141.2662  144.8196  160.9212 N.ar    1  UNL1       -0.1767
     21 C         142.8251  143.4577  157.6746 C.3     1  UNL1        0.2542
     22 O         142.7828  144.3774  158.8587 O.3     1  UNL1       -0.4561
     23 O         139.7494  145.2617  162.9838 O.3     1  UNL1       -0.4640
     24 C         138.6954  144.6819  163.8800 C.3     1  UNL1        0.1678
     25 C         138.7802  144.8815  165.3642 C.3     1  UNL1        0.0473
     26 C         137.5567  143.9026  163.2919 C.3     1  UNL1        0.0473
     27 C         142.3682  139.5584  161.5176 C.3     1  UNL1        0.1186
     28 O         143.7482  140.0541  161.2017 O.3     1  UNL1       -0.3819
     29 H         144.1599  140.4005  162.0089 H       1  UNL1        0.2107
     30 C         140.9881  139.0627  161.8334 C.ar    1  UNL1        0.0369
     31 C         140.7923  138.0036  162.8773 C.ar    1  UNL1        0.0010
     32 C         139.4122  137.5079  163.1931 C.ar    1  UNL1       -0.0000
     33 C         138.2280  138.0713  162.4650 C.ar    1  UNL1        0.0031
     34 C         138.4239  139.1304  161.4210 C.ar    1  UNL1        0.0375
     35 C         137.4548  139.8682  160.5455 C.ar    1  UNL1        0.0437
     36 C         138.2358  140.8198  159.6886 C.ar    1  UNL1        0.1796
     37 O         139.6878  140.6702  160.0345 O.2     1  UNL1       -0.4507
     38 C         139.8039  139.6261  161.1052 C.ar    1  UNL1        0.1436
     39 C         142.5576  138.4203  160.5590 C.3     1  UNL1        0.0492
     40 C         142.7848  138.6966  159.1022 C.3     1  UNL1        0.0750
     41 N         142.0588  137.8930  158.0644 N.3     1  UNL1       -0.2702
     42 C         140.6083  138.1583  157.7896 C.3     1  UNL1        0.0897
     43 C         142.7834  136.8240  157.3013 C.3     1  UNL1        0.0897
@<TRIPOS>BOND
     1    21    22    1
     2    22    15    1
     3    15    16   ar
     4    16    17   ar
     5     1    17    1
     6     1     2    1
     7     2     3   ar
     8     3     4   ar
     9     4     5   ar
    10     5     6   ar
    11     6     7    1
    12     6     8   ar
    13     8     9   ar
    14     9    10   ar
    15    10    11   ar
    16    11    12   ar
    17    12    13    1
    18    13    14    1
    19     1    27    1
    20    27    28    1
    21    27    39    1
    22    39    40    1
    23    40    41    1
    24    41    42    1
    25    41    43    1
    26    27    30    1
    27    30    31   ar
    28    31    32   ar
    29    32    33   ar
    30    33    34   ar
    31    34    35   ar
    32    35    36   ar
    33    36    37   ar
    34    37    38   ar
    35    17    18   ar
    36    18    19   ar
    37    19    23    1
    38    23    24    1
    39    24    25    1
    40    24    26    1
    41    19    20   ar
    42    20    15   ar
    43    12     2   ar
    44    38    30   ar
    45    10     4   ar
    46    38    34   ar
    47    28    29    1
@<TRIPOS>MOLECULE
*****
 43 47 0 0 0
SMALL
GASTEIGER

@<TRIPOS>ATOM
      1 C         142.0625  141.1313  163.1320 C.3     1  UNL1        0.0764
      2 C         142.3438  141.4551  164.5695 C.ar    1  UNL1        0.0181
      3 C         141.5044  140.8465  165.6534 C.ar    1  UNL1       -0.0009
      4 C         141.7857  141.1703  167.0909 C.ar    1  UNL1        0.0004
      5 C         140.9463  140.5617  168.1749 C.ar    1  UNL1        0.0067
      6 C         141.2276  140.8855  169.6122 C.ar    1  UNL1        0.0346
      7 BR        140.3882  140.2770  170.6963 Br      1  UNL1       -0.0490
      8 C         142.3483  141.8178  169.9656 C.ar    1  UNL1        0.0067
      9 C         143.1877  142.4263  168.8816 C.ar    1  UNL1        0.0006
     10 C         142.9064  142.1025  167.4443 C.ar    1  UNL1        0.0030
     11 C         143.7458  142.7111  166.3602 C.ar    1  UNL1        0.0366
     12 C         143.4645  142.3873  164.9229 C.ar    1  UNL1        0.1351
     13 O         144.3040  142.9959  163.8388 O.3     1  UNL1       -0.4717
     14 C         143.9930  144.3736  163.3336 C.3     1  UNL1        0.2525
     15 C         139.0810  143.5150  162.0465 C.ar    1  UNL1        0.2272
     16 C         139.9313  142.5938  162.8702 C.ar    1  UNL1        0.0540
     17 C         141.2123  142.0525  162.3083 C.ar    1  UNL1       -0.0064
     18 C         141.6432  142.4323  160.9226 C.ar    1  UNL1        0.0540
     19 C         140.7930  143.3535  160.0989 C.ar    1  UNL1        0.2270
     20 N         139.5119  143.8948  160.6608 N.ar    1  UNL1       -0.1767
     21 C         137.5605  144.0309  164.0889 C.3     1  UNL1        0.2542
     22 O         137.7999  144.0563  162.6084 O.3     1  UNL1       -0.4561
     23 O         141.2239  143.7333  158.7132 O.3     1  UNL1       -0.4640
     24 C         140.2669  144.4359  157.7964 C.3     1  UNL1        0.1678
     25 C         139.2394  143.6486  157.0384 C.3     1  UNL1        0.0473
     26 C         140.3374  145.9258  157.6375 C.3     1  UNL1        0.0473
     27 C         142.6315  139.8864  162.5184 C.3     1  UNL1        0.1186
     28 O         143.8556  140.6491  162.1062 O.3     1  UNL1       -0.3819
     29 H         144.0861  141.2889  162.7978 H       1  UNL1        0.2107
     30 C         141.4074  139.1238  162.9307 C.ar    1  UNL1        0.0369
     31 C         141.3864  138.3892  164.2383 C.ar    1  UNL1        0.0010
     32 C         140.1623  137.6266  164.6506 C.ar    1  UNL1       -0.0000
     33 C         138.9592  137.5985  163.7552 C.ar    1  UNL1        0.0031
     34 C         138.9802  138.3331  162.4476 C.ar    1  UNL1        0.0375
     35 C         137.9529  138.4853  161.3652 C.ar    1  UNL1        0.0437
     36 C         138.5420  139.3420  160.2841 C.ar    1  UNL1        0.1796
     37 O         139.9335  139.7193  160.6982 O.2     1  UNL1       -0.4507
     38 C         140.2043  139.0957  162.0353 C.ar    1  UNL1        0.1436
     39 C         143.2004  138.6415  161.9048 C.3     1  UNL1        0.0492
     40 C         144.0892  138.7378  160.7003 C.3     1  UNL1        0.0750
     41 N         143.4978  139.0311  159.3534 N.3     1  UNL1       -0.2702
     42 C         143.8366  140.3109  158.6481 C.3     1  UNL1        0.0897
     43 C         142.5676  138.0447  158.7117 C.3     1  UNL1        0.0897
@<TRIPOS>BOND
     1    21    22    1
     2    22    15    1
     3    15    16   ar
     4    16    17   ar
     5     1    17    1
     6     1     2    1
     7     2     3   ar
     8     3     4   ar
     9     4     5   ar
    10     5     6   ar
    11     6     7    1
    12     6     8   ar
    13     8     9   ar
    14     9    10   ar
    15    10    11   ar
    16    11    12   ar
    17    12    13    1
    18    13    14    1
    19     1    27    1
    20    27    28    1
    21    27    39    1
    22    39    40    1
    23    40    41    1
    24    41    42    1
    25    41    43    1
    26    27    30    1
    27    30    31   ar
    28    31    32   ar
    29    32    33   ar
    30    33    34   ar
    31    34    35   ar
    32    35    36   ar
    33    36    37   ar
    34    37    38   ar
    35    17    18   ar
    36    18    19   ar
    37    19    23    1
    38    23    24    1
    39    24    25    1
    40    24    26    1
    41    19    20   ar
    42    20    15   ar
    43    12     2   ar
    44    38    30   ar
    45    10     4   ar
    46    38    34   ar
    47    28    29    1
@<TRIPOS>MOLECULE
*****
 43 47 0 0 0
SMALL
GASTEIGER

@<TRIPOS>ATOM
      1 C         140.1112  140.3816  163.2006 C.3     1  UNL1        0.0764
      2 C         139.9422  140.3747  164.6911 C.ar    1  UNL1        0.0181
      3 C         140.2939  141.5936  165.4914 C.ar    1  UNL1       -0.0009
      4 C         140.1249  141.5867  166.9819 C.ar    1  UNL1        0.0004
      5 C         140.4766  142.8055  167.7822 C.ar    1  UNL1        0.0067
      6 C         140.3076  142.7986  169.2726 C.ar    1  UNL1        0.0346
      7 BR        140.6593  144.0175  170.0731 Br      1  UNL1       -0.0490
      8 C         139.7868  141.5728  169.9627 C.ar    1  UNL1        0.0067
      9 C         139.4351  140.3539  169.1624 C.ar    1  UNL1        0.0006
     10 C         139.6041  140.3609  167.6720 C.ar    1  UNL1        0.0030
     11 C         139.2524  139.1419  166.8715 C.ar    1  UNL1        0.0366
     12 C         139.4214  139.1489  165.3811 C.ar    1  UNL1        0.1351
     13 O         139.0697  137.9300  164.5807 O.3     1  UNL1       -0.4717
     14 C         140.1162  136.8950  164.2915 C.3     1  UNL1        0.2525
     15 C         144.0614  140.1992  162.8648 C.ar    1  UNL1        0.2272
     16 C         142.6955  140.3535  163.4655 C.ar    1  UNL1        0.0540
     17 C         141.4770  140.2273  162.5999 C.ar    1  UNL1       -0.0064
     18 C         141.6242  139.9469  161.1338 C.ar    1  UNL1        0.0540
     19 C         142.9899  139.7926  160.5331 C.ar    1  UNL1        0.2270
     20 N         144.2086  139.9187  161.3987 N.ar    1  UNL1       -0.1767
     21 C         145.9898  141.6422  163.8386 C.3     1  UNL1        0.2542
     22 O         145.2799  140.3253  163.7304 O.3     1  UNL1       -0.4561
     23 O         143.1372  139.5121  159.0669 O.3     1  UNL1       -0.4640
     24 C         143.3473  140.6432  158.1044 C.3     1  UNL1        0.1678
     25 C         142.2667  141.6628  157.8978 C.3     1  UNL1        0.0473
     26 C         144.6381  140.7547  157.3485 C.3     1  UNL1        0.0473
     27 C         138.9144  140.5428  162.3108 C.3     1  UNL1        0.1186
     28 O         139.0480  139.1145  161.8724 O.3     1  UNL1       -0.3819
     29 H         139.3253  138.5697  162.6255 H       1  UNL1        0.2107
     30 C         138.7808  141.9711  162.7493 C.ar    1  UNL1        0.0369
     31 C         137.8144  142.3344  163.8374 C.ar    1  UNL1        0.0010
     32 C         137.6808  143.7626  164.2758 C.ar    1  UNL1       -0.0000
     33 C         138.5137  144.8276  163.6261 C.ar    1  UNL1        0.0031
     34 C         139.4801  144.4643  162.5380 C.ar    1  UNL1        0.0375
     35 C         140.4269  145.2910  161.7193 C.ar    1  UNL1        0.0437
     36 C         141.1456  144.3736  160.7749 C.ar    1  UNL1        0.1796
     37 O         140.6430  142.9799  161.0099 O.2     1  UNL1       -0.4507
     38 C         139.6137  143.0361  162.0996 C.ar    1  UNL1        0.1436
     39 C         137.7176  140.7040  161.4211 C.3     1  UNL1        0.0492
     40 C         137.6267  139.9309  160.1388 C.3     1  UNL1        0.0750
     41 N         138.4965  140.3038  158.9750 N.3     1  UNL1       -0.2702
     42 C         139.3402  139.2604  158.3046 C.3     1  UNL1        0.0897
     43 C         138.5224  141.7201  158.4816 C.3     1  UNL1        0.0897
@<TRIPOS>BOND
     1    21    22    1
     2    22    15    1
     3    15    16   ar
     4    16    17   ar
     5     1    17    1
     6     1     2    1
     7     2     3   ar
     8     3     4   ar
     9     4     5   ar
    10     5     6   ar
    11     6     7    1
    12     6     8   ar
    13     8     9   ar
    14     9    10   ar
    15    10    11   ar
    16    11    12   ar
    17    12    13    1
    18    13    14    1
    19     1    27    1
    20    27    28    1
    21    27    39    1
    22    39    40    1
    23    40    41    1
    24    41    42    1
    25    41    43    1
    26    27    30    1
    27    30    31   ar
    28    31    32   ar
    29    32    33   ar
    30    33    34   ar
    31    34    35   ar
    32    35    36   ar
    33    36    37   ar
    34    37    38   ar
    35    17    18   ar
    36    18    19   ar
    37    19    23    1
    38    23    24    1
    39    24    25    1
    40    24    26    1
    41    19    20   ar
    42    20    15   ar
    43    12     2   ar
    44    38    30   ar
    45    10     4   ar
    46    38    34   ar
    47    28    29    1
@<TRIPOS>MOLECULE
*****
 43 47 0 0 0
SMALL
GASTEIGER

@<TRIPOS>ATOM
      1 C         140.4561  140.5355  163.9734 C.3     1  UNL1        0.0764
      2 C         140.3158  140.5658  165.4665 C.ar    1  UNL1        0.0181
      3 C         141.2134  141.4443  166.2865 C.ar    1  UNL1       -0.0009
      4 C         141.0731  141.4746  167.7797 C.ar    1  UNL1        0.0004
      5 C         141.9708  142.3531  168.5996 C.ar    1  UNL1        0.0067
      6 C         141.8304  142.3834  170.0927 C.ar    1  UNL1        0.0346
      7 BR        142.7282  143.2620  170.9128 Br      1  UNL1       -0.0490
      8 C         140.7924  141.5352  170.7658 C.ar    1  UNL1        0.0067
      9 C         139.8947  140.6568  169.9459 C.ar    1  UNL1        0.0006
     10 C         140.0351  140.6265  168.4528 C.ar    1  UNL1        0.0030
     11 C         139.1374  139.7479  167.6327 C.ar    1  UNL1        0.0366
     12 C         139.2777  139.7176  166.1397 C.ar    1  UNL1        0.1351
     13 O         138.3800  138.8391  165.3196 O.3     1  UNL1       -0.4717
     14 C         138.5112  137.3472  165.4025 C.3     1  UNL1        0.2525
     15 C         140.7639  144.2893  162.7227 C.ar    1  UNL1        0.2272
     16 C         140.9832  143.0391  163.5222 C.ar    1  UNL1        0.0540
     17 C         140.2368  141.7856  163.1739 C.ar    1  UNL1       -0.0064
     18 C         139.2710  141.7821  162.0262 C.ar    1  UNL1        0.0540
     19 C         139.0517  143.0321  161.2267 C.ar    1  UNL1        0.2270
     20 N         139.7982  144.2858  161.5750 N.ar    1  UNL1       -0.1767
     21 C         142.8118  145.4593  163.8121 C.3     1  UNL1        0.2542
     22 O         141.5104  145.5428  163.0710 O.3     1  UNL1       -0.4561
     23 O         138.0860  143.0286  160.0790 O.3     1  UNL1       -0.4640
     24 C         138.5133  142.5025  158.7408 C.3     1  UNL1        0.1678
     25 C         138.0986  141.1274  158.3084 C.3     1  UNL1        0.0473
     26 C         139.3553  143.3515  157.8352 C.3     1  UNL1        0.0473
     27 C         140.8157  139.2550  163.2798 C.3     1  UNL1        0.1186
     28 O         139.4844  139.2555  162.5886 O.3     1  UNL1       -0.3819
     29 H         139.2418  140.1651  162.3549 H       1  UNL1        0.2107
     30 C         142.1470  139.2546  163.9709 C.ar    1  UNL1        0.0369
     31 C         142.3632  138.3960  165.1817 C.ar    1  UNL1        0.0010
     32 C         143.6945  138.3955  165.8728 C.ar    1  UNL1       -0.0000
     33 C         144.8096  139.2536  165.3531 C.ar    1  UNL1        0.0031
     34 C         144.5934  140.1122  164.1423 C.ar    1  UNL1        0.0375
     35 C         145.4984  141.0547  163.4056 C.ar    1  UNL1        0.0437
     36 C         144.7265  141.6377  162.2593 C.ar    1  UNL1        0.1796
     37 O         143.3443  141.0555  162.2874 O.2     1  UNL1       -0.4507
     38 C         143.2621  140.1127  163.4512 C.ar    1  UNL1        0.1436
     39 C         141.1753  137.9746  162.5861 C.3     1  UNL1        0.0492
     40 C         141.2326  137.9236  161.0880 C.3     1  UNL1        0.0750
     41 N         142.5579  137.8396  160.3906 N.3     1  UNL1       -0.2702
     42 C         143.8122  137.6308  161.1862 C.3     1  UNL1        0.0897
     43 C         142.6288  137.9644  158.8974 C.3     1  UNL1        0.0897
@<TRIPOS>BOND
     1    21    22    1
     2    22    15    1
     3    15    16   ar
     4    16    17   ar
     5     1    17    1
     6     1     2    1
     7     2     3   ar
     8     3     4   ar
     9     4     5   ar
    10     5     6   ar
    11     6     7    1
    12     6     8   ar
    13     8     9   ar
    14     9    10   ar
    15    10    11   ar
    16    11    12   ar
    17    12    13    1
    18    13    14    1
    19     1    27    1
    20    27    28    1
    21    27    39    1
    22    39    40    1
    23    40    41    1
    24    41    42    1
    25    41    43    1
    26    27    30    1
    27    30    31   ar
    28    31    32   ar
    29    32    33   ar
    30    33    34   ar
    31    34    35   ar
    32    35    36   ar
    33    36    37   ar
    34    37    38   ar
    35    17    18   ar
    36    18    19   ar
    37    19    23    1
    38    23    24    1
    39    24    25    1
    40    24    26    1
    41    19    20   ar
    42    20    15   ar
    43    12     2   ar
    44    38    30   ar
    45    10     4   ar
    46    38    34   ar
    47    28    29    1
