@<TRIPOS>MOLECULE
*****
 31 34 0 0 0
SMALL
GASTEIGER

@<TRIPOS>ATOM
      1 O         138.5808  142.5844  158.8049 O.2     1  UNL1       -0.2738
      2 C         137.8379  141.6331  157.9144 C.2     1  UNL1        0.2376
      3 N         137.7213  140.1865  158.2937 N.am    1  UNL1       -0.2832
      4 H         137.2336  139.5621  157.7093 H       1  UNL1        0.1549
      5 C         138.3477  139.6912  159.5635 C.ar    1  UNL1        0.0505
      6 C         137.6198  139.8400  160.8666 C.ar    1  UNL1        0.0178
      7 C         138.2462  139.3448  162.1364 C.ar    1  UNL1        0.0388
      8 C         139.6005  138.7008  162.1031 C.ar    1  UNL1        0.1454
      9 C         140.3284  138.5520  160.8000 C.ar    1  UNL1        0.0388
     10 C         139.7020  139.0472  159.5302 C.ar    1  UNL1        0.0178
     11 O         140.2269  138.2056  163.3729 O.3     1  UNL1       -0.4535
     12 C         139.5943  138.5240  164.6951 C.ar    1  UNL1        0.1453
     13 C         138.5510  137.6103  165.2668 C.ar    1  UNL1        0.0375
     14 C         137.9184  137.9287  166.5891 C.ar    1  UNL1        0.0031
     15 C         138.3290  139.1608  167.3397 C.ar    1  UNL1        0.0002
     16 C         139.3723  140.0745  166.7680 C.ar    1  UNL1        0.0031
     17 C         140.0049  139.7561  165.4457 C.ar    1  UNL1        0.0375
     18 C         137.2115  142.1283  156.6446 C.3     1  UNL1        0.1501
     19 S         136.4759  141.1753  155.7498 S.3     1  UNL1       -0.0659
     20 C         135.0391  140.8445  156.0260 C.2     1  UNL1        0.1902
     21 N         134.5419  139.8283  157.0109 N.2     1  UNL1       -0.2198
     22 C         133.0428  139.8276  156.9593 C.2     1  UNL1        0.1034
     23 C         132.0131  139.0332  157.7069 C.2     1  UNL1        0.0953
     24 C         130.5543  139.2546  157.4376 C.2     1  UNL1        0.2878
     25 C         130.1250  140.2704  156.4208 C.2     1  UNL1        0.0555
     26 C         131.1546  141.0648  155.6732 C.3     1  UNL1        0.0798
     27 C         132.6135  140.8433  155.9425 C.2     1  UNL1        0.0835
     28 N         133.8473  141.4718  155.3657 N.2     1  UNL1       -0.2237
     29 N         129.5246  138.4602  158.1851 N.pl3   1  UNL1        0.0806
     30 O         129.1049  137.1120  157.6793 O.2     1  UNL1        0.0415
     31 O         128.9146  139.0142  159.4386 O.co2   1  UNL1       -0.5760
@<TRIPOS>UNITY_ATOM_ATTR
29 1
charge 1
31 1
charge -1
@<TRIPOS>BOND
     1     1     2    2
     2     2    18    1
     3    18    19    1
     4    19    20    1
     5    20    21    2
     6    21    22    1
     7    22    23    2
     8    23    24    1
     9    24    29    1
    10    29    30    2
    11    29    31    1
    12    24    25    2
    13    25    26    1
    14    26    27    1
    15    27    28    2
    16     2     3   am
    17     3     5    1
    18     5     6   ar
    19     6     7   ar
    20     7     8   ar
    21     8    11    1
    22    11    12    1
    23    12    13   ar
    24    13    14   ar
    25    14    15   ar
    26    15    16   ar
    27    16    17   ar
    28     8     9   ar
    29     9    10   ar
    30    28    20    1
    31    10     5   ar
    32    27    22    1
    33    17    12   ar
    34     3     4    1
@<TRIPOS>MOLECULE
*****
 31 34 0 0 0
SMALL
GASTEIGER

@<TRIPOS>ATOM
      1 O         138.4370  142.5761  159.1957 O.2     1  UNL1       -0.2738
      2 C         137.9472  141.7080  158.0748 C.2     1  UNL1        0.2376
      3 N         137.9426  140.2159  158.2288 N.am    1  UNL1       -0.2832
      4 H         137.6211  139.6461  157.4931 H       1  UNL1        0.1549
      5 C         138.4279  139.5920  159.5036 C.ar    1  UNL1        0.0505
      6 C         137.5602  139.6135  160.7269 C.ar    1  UNL1        0.0178
      7 C         138.0455  138.9895  162.0017 C.ar    1  UNL1        0.0388
      8 C         139.3985  138.3441  162.0533 C.ar    1  UNL1        0.1454
      9 C         140.2663  138.3226  160.8299 C.ar    1  UNL1        0.0388
     10 C         139.7810  138.9465  159.5551 C.ar    1  UNL1        0.0178
     11 O         139.8838  137.7202  163.3281 O.3     1  UNL1       -0.4535
     12 C         139.5926  138.3790  164.6438 C.ar    1  UNL1        0.1453
     13 C         138.4205  137.9290  165.4647 C.ar    1  UNL1        0.0375
     14 C         138.1292  138.5878  166.7805 C.ar    1  UNL1        0.0031
     15 C         139.0101  139.6965  167.2754 C.ar    1  UNL1        0.0002
     16 C         140.1822  140.1464  166.4545 C.ar    1  UNL1        0.0031
     17 C         140.4734  139.4876  165.1387 C.ar    1  UNL1        0.0375
     18 C         137.4619  142.3320  156.8000 C.3     1  UNL1        0.1501
     19 S         136.7350  141.4987  155.7864 S.3     1  UNL1       -0.0659
     20 C         135.3353  141.0350  156.0615 C.2     1  UNL1        0.1902
     21 N         134.0915  141.5405  155.3927 N.2     1  UNL1       -0.2198
     22 C         132.9210  140.8023  155.9716 C.2     1  UNL1        0.1034
     23 C         131.4487  140.8816  155.6965 C.2     1  UNL1        0.0953
     24 C         130.4967  139.9991  156.4481 C.2     1  UNL1        0.2878
     25 C         131.0171  139.0373  157.4748 C.2     1  UNL1        0.0555
     26 C         132.4895  138.9580  157.7499 C.3     1  UNL1        0.0798
     27 C         133.4415  139.8405  156.9983 C.2     1  UNL1        0.0835
     28 N         134.9335  139.9844  157.0539 N.2     1  UNL1       -0.2237
     29 N         129.0242  140.0784  156.1730 N.pl3   1  UNL1        0.0806
     30 O         128.4929  139.7071  154.8203 O.2     1  UNL1        0.0415
     31 O         128.0831  140.5290  157.2506 O.co2   1  UNL1       -0.5760
@<TRIPOS>UNITY_ATOM_ATTR
29 1
charge 1
31 1
charge -1
@<TRIPOS>BOND
     1     1     2    2
     2     2    18    1
     3    18    19    1
     4    19    20    1
     5    20    21    2
     6    21    22    1
     7    22    23    2
     8    23    24    1
     9    24    29    1
    10    29    30    2
    11    29    31    1
    12    24    25    2
    13    25    26    1
    14    26    27    1
    15    27    28    2
    16     2     3   am
    17     3     5    1
    18     5     6   ar
    19     6     7   ar
    20     7     8   ar
    21     8    11    1
    22    11    12    1
    23    12    13   ar
    24    13    14   ar
    25    14    15   ar
    26    15    16   ar
    27    16    17   ar
    28     8     9   ar
    29     9    10   ar
    30    28    20    1
    31    10     5   ar
    32    27    22    1
    33    17    12   ar
    34     3     4    1
@<TRIPOS>MOLECULE
*****
 31 34 0 0 0
SMALL
GASTEIGER

@<TRIPOS>ATOM
      1 O         140.0859  137.6755  161.7904 O.2     1  UNL1       -0.2738
      2 C         139.6055  139.0506  161.4325 C.2     1  UNL1        0.2376
      3 N         139.8313  139.5878  160.0502 N.am    1  UNL1       -0.2832
      4 H         139.5159  140.4904  159.8153 H       1  UNL1        0.1549
      5 C         140.5374  138.7498  159.0260 C.ar    1  UNL1        0.0505
      6 C         139.7830  138.2151  157.8450 C.ar    1  UNL1        0.0178
      7 C         140.4892  137.3771  156.8207 C.ar    1  UNL1        0.0388
      8 C         141.9498  137.0738  156.9775 C.ar    1  UNL1        0.1454
      9 C         142.7043  137.6086  158.1586 C.ar    1  UNL1        0.0388
     10 C         141.9981  138.4466  159.1828 C.ar    1  UNL1        0.0178
     11 O         142.6559  136.2358  155.9533 O.3     1  UNL1       -0.4535
     12 C         142.6153  134.7396  156.0511 C.ar    1  UNL1        0.1453
     13 C         141.5967  133.9642  155.2692 C.ar    1  UNL1        0.0375
     14 C         141.5561  132.4680  155.3670 C.ar    1  UNL1        0.0031
     15 C         142.5341  131.7471  156.2466 C.ar    1  UNL1        0.0002
     16 C         143.5527  132.5223  157.0285 C.ar    1  UNL1        0.0031
     17 C         143.5933  134.0187  156.9307 C.ar    1  UNL1        0.0375
     18 C         138.8994  139.8887  162.4567 C.3     1  UNL1        0.1501
     19 S         139.6112  141.0390  163.1047 S.3     1  UNL1       -0.0659
     20 C         139.7365  141.0981  164.5983 C.2     1  UNL1        0.1902
     21 N         140.3829  142.1989  165.3860 N.2     1  UNL1       -0.2198
     22 C         140.2833  141.8480  166.8410 C.2     1  UNL1        0.1034
     23 C         140.7458  142.5580  168.0786 C.2     1  UNL1        0.0953
     24 C         140.5002  141.9504  169.4279 C.2     1  UNL1        0.2878
     25 C         139.7921  140.6327  169.5394 C.2     1  UNL1        0.0555
     26 C         139.3296  139.9227  168.3017 C.3     1  UNL1        0.0798
     27 C         139.5752  140.5303  166.9525 C.2     1  UNL1        0.0835
     28 N         139.2372  140.0669  165.5665 N.2     1  UNL1       -0.2237
     29 N         140.9627  142.6604  170.6656 N.pl3   1  UNL1        0.0806
     30 O         140.4014  142.2788  172.0032 O.2     1  UNL1        0.0415
     31 O         141.9866  143.7521  170.5657 O.co2   1  UNL1       -0.5760
@<TRIPOS>UNITY_ATOM_ATTR
29 1
charge 1
31 1
charge -1
@<TRIPOS>BOND
     1     1     2    2
     2     2    18    1
     3    18    19    1
     4    19    20    1
     5    20    21    2
     6    21    22    1
     7    22    23    2
     8    23    24    1
     9    24    29    1
    10    29    30    2
    11    29    31    1
    12    24    25    2
    13    25    26    1
    14    26    27    1
    15    27    28    2
    16     2     3   am
    17     3     5    1
    18     5     6   ar
    19     6     7   ar
    20     7     8   ar
    21     8    11    1
    22    11    12    1
    23    12    13   ar
    24    13    14   ar
    25    14    15   ar
    26    15    16   ar
    27    16    17   ar
    28     8     9   ar
    29     9    10   ar
    30    28    20    1
    31    10     5   ar
    32    27    22    1
    33    17    12   ar
    34     3     4    1
@<TRIPOS>MOLECULE
*****
 31 34 0 0 0
SMALL
GASTEIGER

@<TRIPOS>ATOM
      1 O         141.2677  139.3905  161.1551 O.2     1  UNL1       -0.2738
      2 C         140.0269  139.0421  160.3876 C.2     1  UNL1        0.2376
      3 N         138.7486  138.7556  161.1184 N.am    1  UNL1       -0.2832
      4 H         137.9342  138.5270  160.6146 H       1  UNL1        0.1549
      5 C         138.7111  138.8177  162.6166 C.ar    1  UNL1        0.0505
      6 C         138.1461  140.0256  163.3033 C.ar    1  UNL1        0.0178
      7 C         138.1086  140.0876  164.8016 C.ar    1  UNL1        0.0388
      8 C         138.6362  138.9418  165.6131 C.ar    1  UNL1        0.1454
      9 C         139.2013  137.7338  164.9264 C.ar    1  UNL1        0.0388
     10 C         139.2387  137.6717  163.4281 C.ar    1  UNL1        0.0178
     11 O         138.5987  139.0038  167.1113 O.3     1  UNL1       -0.4535
     12 C         139.4153  140.0294  167.8402 C.ar    1  UNL1        0.1453
     13 C         140.5176  140.7552  167.1273 C.ar    1  UNL1        0.0375
     14 C         141.3342  141.7809  167.8562 C.ar    1  UNL1        0.0031
     15 C         141.0485  142.0808  169.2979 C.ar    1  UNL1        0.0002
     16 C         139.9462  141.3550  170.0107 C.ar    1  UNL1        0.0031
     17 C         139.1295  140.3293  169.2819 C.ar    1  UNL1        0.0375
     18 C         140.0644  138.9800  158.8893 C.3     1  UNL1        0.1501
     19 S         141.3777  138.8478  158.1768 S.3     1  UNL1       -0.0659
     20 C         141.7188  137.5732  157.4633 C.2     1  UNL1        0.1902
     21 N         142.8192  136.6232  157.8329 N.2     1  UNL1       -0.2198
     22 C         142.8000  135.4877  156.8529 C.2     1  UNL1        0.1034
     23 C         143.6515  134.2598  156.7227 C.2     1  UNL1        0.0953
     24 C         143.3909  133.2802  155.6171 C.2     1  UNL1        0.2878
     25 C         142.2787  133.5285  154.6418 C.2     1  UNL1        0.0555
     26 C         141.4271  134.7564  154.7720 C.3     1  UNL1        0.0798
     27 C         141.6877  135.7360  155.8776 C.2     1  UNL1        0.0835
     28 N         141.0196  137.0249  156.2548 N.2     1  UNL1       -0.2237
     29 N         144.2425  132.0522  155.4869 N.pl3   1  UNL1        0.0806
     30 O         143.8639  130.9769  154.5120 O.2     1  UNL1        0.0415
     31 O         145.4726  131.8995  156.3315 O.co2   1  UNL1       -0.5760
@<TRIPOS>UNITY_ATOM_ATTR
29 1
charge 1
31 1
charge -1
@<TRIPOS>BOND
     1     1     2    2
     2     2    18    1
     3    18    19    1
     4    19    20    1
     5    20    21    2
     6    21    22    1
     7    22    23    2
     8    23    24    1
     9    24    29    1
    10    29    30    2
    11    29    31    1
    12    24    25    2
    13    25    26    1
    14    26    27    1
    15    27    28    2
    16     2     3   am
    17     3     5    1
    18     5     6   ar
    19     6     7   ar
    20     7     8   ar
    21     8    11    1
    22    11    12    1
    23    12    13   ar
    24    13    14   ar
    25    14    15   ar
    26    15    16   ar
    27    16    17   ar
    28     8     9   ar
    29     9    10   ar
    30    28    20    1
    31    10     5   ar
    32    27    22    1
    33    17    12   ar
    34     3     4    1
@<TRIPOS>MOLECULE
*****
 31 34 0 0 0
SMALL
GASTEIGER

@<TRIPOS>ATOM
      1 O         142.3282  140.8801  160.8441 O.2     1  UNL1       -0.2738
      2 C         143.0429  139.7194  160.2180 C.2     1  UNL1        0.2376
      3 N         143.5713  138.6108  161.0794 N.am    1  UNL1       -0.2832
      4 H         144.0403  137.8490  160.6684 H       1  UNL1        0.1549
      5 C         143.3849  138.6630  162.5668 C.ar    1  UNL1        0.0505
      6 C         142.1687  138.0471  163.1924 C.ar    1  UNL1        0.0178
      7 C         141.9824  138.0992  164.6799 C.ar    1  UNL1        0.0388
      8 C         143.0123  138.7672  165.5418 C.ar    1  UNL1        0.1454
      9 C         144.2287  139.3832  164.9162 C.ar    1  UNL1        0.0388
     10 C         144.4150  139.3310  163.4288 C.ar    1  UNL1        0.0178
     11 O         142.8260  138.8194  167.0293 O.3     1  UNL1       -0.4535
     12 C         142.0957  139.9712  167.6537 C.ar    1  UNL1        0.1453
     13 C         142.8054  141.2723  167.8853 C.ar    1  UNL1        0.0375
     14 C         142.0751  142.4241  168.5098 C.ar    1  UNL1        0.0031
     15 C         140.6352  142.2749  168.9027 C.ar    1  UNL1        0.0002
     16 C         139.9256  140.9738  168.6711 C.ar    1  UNL1        0.0031
     17 C         140.6558  139.8219  168.0466 C.ar    1  UNL1        0.0375
     18 C         143.2292  139.6673  158.7305 C.3     1  UNL1        0.1501
     19 S         142.1617  139.0714  157.8614 S.3     1  UNL1       -0.0659
     20 C         142.2791  137.6497  157.3976 C.2     1  UNL1        0.1902
     21 N         143.2317  136.6229  157.9345 N.2     1  UNL1       -0.2198
     22 C         143.0058  135.3438  157.1842 C.2     1  UNL1        0.1034
     23 C         143.6535  133.9945  157.2829 C.2     1  UNL1        0.0953
     24 C         143.2091  132.8815  156.3810 C.2     1  UNL1        0.2878
     25 C         142.1168  133.1178  155.3803 C.2     1  UNL1        0.0555
     26 C         141.4691  134.4671  155.2817 C.3     1  UNL1        0.0798
     27 C         141.9136  135.5801  156.1836 C.2     1  UNL1        0.0835
     28 N         141.4645  137.0052  156.3155 N.2     1  UNL1       -0.2237
     29 N         143.8568  131.5321  156.4796 N.pl3   1  UNL1        0.0806
     30 O         145.2519  131.3306  155.9668 O.2     1  UNL1        0.0415
     31 O         143.1094  130.3843  157.0911 O.co2   1  UNL1       -0.5760
@<TRIPOS>UNITY_ATOM_ATTR
29 1
charge 1
31 1
charge -1
@<TRIPOS>BOND
     1     1     2    2
     2     2    18    1
     3    18    19    1
     4    19    20    1
     5    20    21    2
     6    21    22    1
     7    22    23    2
     8    23    24    1
     9    24    29    1
    10    29    30    2
    11    29    31    1
    12    24    25    2
    13    25    26    1
    14    26    27    1
    15    27    28    2
    16     2     3   am
    17     3     5    1
    18     5     6   ar
    19     6     7   ar
    20     7     8   ar
    21     8    11    1
    22    11    12    1
    23    12    13   ar
    24    13    14   ar
    25    14    15   ar
    26    15    16   ar
    27    16    17   ar
    28     8     9   ar
    29     9    10   ar
    30    28    20    1
    31    10     5   ar
    32    27    22    1
    33    17    12   ar
    34     3     4    1
@<TRIPOS>MOLECULE
*****
 31 34 0 0 0
SMALL
GASTEIGER

@<TRIPOS>ATOM
      1 O         139.6389  141.9330  158.4039 O.2     1  UNL1       -0.2738
      2 C         138.3179  141.3598  157.9841 C.2     1  UNL1        0.2376
      3 N         137.6785  140.2744  158.7985 N.am    1  UNL1       -0.2832
      4 H         136.8114  139.8982  158.5230 H       1  UNL1        0.1549
      5 C         138.3601  139.7623  160.0327 C.ar    1  UNL1        0.0505
      6 C         138.2589  140.5286  161.3181 C.ar    1  UNL1        0.0178
      7 C         138.9405  140.0165  162.5523 C.ar    1  UNL1        0.0388
      8 C         139.7235  138.7381  162.5009 C.ar    1  UNL1        0.1454
      9 C         139.8248  137.9718  161.2154 C.ar    1  UNL1        0.0388
     10 C         139.1431  138.4839  159.9812 C.ar    1  UNL1        0.0178
     11 O         140.4052  138.2260  163.7350 O.3     1  UNL1       -0.4535
     12 C         141.8329  138.5942  164.0108 C.ar    1  UNL1        0.1453
     13 C         142.4019  138.4128  165.3868 C.ar    1  UNL1        0.0375
     14 C         143.8296  138.7809  165.6625 C.ar    1  UNL1        0.0031
     15 C         144.6884  139.3305  164.5623 C.ar    1  UNL1        0.0002
     16 C         144.1194  139.5119  163.1863 C.ar    1  UNL1        0.0031
     17 C         142.6916  139.1437  162.9105 C.ar    1  UNL1        0.0375
     18 C         137.6362  141.8719  156.7500 C.3     1  UNL1        0.1501
     19 S         136.8733  140.9283  155.8683 S.3     1  UNL1       -0.0659
     20 C         135.3943  140.7594  156.0527 C.2     1  UNL1        0.1902
     21 N         134.7273  139.8698  157.0595 N.2     1  UNL1       -0.2198
     22 C         133.2434  140.0111  156.8918 C.2     1  UNL1        0.1034
     23 C         132.0876  139.3764  157.6068 C.2     1  UNL1        0.0953
     24 C         130.6817  139.7187  157.2113 C.2     1  UNL1        0.2878
     25 C         130.4317  140.6956  156.1009 C.2     1  UNL1        0.0555
     26 C         131.5875  141.3304  155.3860 C.3     1  UNL1        0.0798
     27 C         132.9933  140.9881  155.7814 C.2     1  UNL1        0.0835
     28 N         134.3227  141.4506  155.2628 N.2     1  UNL1       -0.2237
     29 N         129.5258  139.0839  157.9263 N.pl3   1  UNL1        0.0806
     30 O         128.1553  139.6835  157.8163 O.2     1  UNL1        0.0415
     31 O         129.7405  137.8497  158.7512 O.co2   1  UNL1       -0.5760
@<TRIPOS>UNITY_ATOM_ATTR
29 1
charge 1
31 1
charge -1
@<TRIPOS>BOND
     1     1     2    2
     2     2    18    1
     3    18    19    1
     4    19    20    1
     5    20    21    2
     6    21    22    1
     7    22    23    2
     8    23    24    1
     9    24    29    1
    10    29    30    2
    11    29    31    1
    12    24    25    2
    13    25    26    1
    14    26    27    1
    15    27    28    2
    16     2     3   am
    17     3     5    1
    18     5     6   ar
    19     6     7   ar
    20     7     8   ar
    21     8    11    1
    22    11    12    1
    23    12    13   ar
    24    13    14   ar
    25    14    15   ar
    26    15    16   ar
    27    16    17   ar
    28     8     9   ar
    29     9    10   ar
    30    28    20    1
    31    10     5   ar
    32    27    22    1
    33    17    12   ar
    34     3     4    1
@<TRIPOS>MOLECULE
*****
 31 34 0 0 0
SMALL
GASTEIGER

@<TRIPOS>ATOM
      1 O         137.7300  139.7331  162.4558 O.2     1  UNL1       -0.2738
      2 C         138.8045  138.7408  162.1234 C.2     1  UNL1        0.2376
      3 N         139.6684  138.1775  163.2127 N.am    1  UNL1       -0.2832
      4 H         140.3737  137.5262  162.9945 H       1  UNL1        0.1549
      5 C         139.4577  138.6068  164.6344 C.ar    1  UNL1        0.0505
      6 C         140.3986  139.5874  165.2691 C.ar    1  UNL1        0.0178
      7 C         140.1879  140.0166  166.6909 C.ar    1  UNL1        0.0388
      8 C         139.0362  139.4652  167.4779 C.ar    1  UNL1        0.1454
      9 C         138.0952  138.4845  166.8433 C.ar    1  UNL1        0.0388
     10 C         138.3059  138.0552  165.4215 C.ar    1  UNL1        0.0178
     11 O         138.8255  139.8944  168.8997 O.3     1  UNL1       -0.4535
     12 C         139.9039  140.6438  169.6246 C.ar    1  UNL1        0.1453
     13 C         139.9156  142.1438  169.6084 C.ar    1  UNL1        0.0375
     14 C         140.9940  142.8932  170.3332 C.ar    1  UNL1        0.0031
     15 C         142.0606  142.1428  171.0743 C.ar    1  UNL1        0.0002
     16 C         142.0489  140.6429  171.0905 C.ar    1  UNL1        0.0031
     17 C         140.9705  139.8934  170.3656 C.ar    1  UNL1        0.0375
     18 C         139.0152  138.3115  160.7016 C.3     1  UNL1        0.1501
     19 S         140.0783  138.9662  159.8702 S.3     1  UNL1       -0.0659
     20 C         141.0515  139.9133  160.5073 C.2     1  UNL1        0.1902
     21 N         140.8357  140.6742  161.7818 N.2     1  UNL1       -0.2198
     22 C         142.0623  141.4969  162.0440 C.2     1  UNL1        0.1034
     23 C         142.4182  142.4433  163.1519 C.2     1  UNL1        0.0953
     24 C         143.7480  143.1372  163.1474 C.2     1  UNL1        0.2878
     25 C         144.7219  142.8847  162.0349 C.2     1  UNL1        0.0555
     26 C         144.3660  141.9383  160.9269 C.3     1  UNL1        0.0798
     27 C         143.0362  141.2444  160.9315 C.2     1  UNL1        0.0835
     28 N         142.4115  140.2657  159.9818 N.2     1  UNL1       -0.2237
     29 N         144.1039  144.0836  164.2554 N.pl3   1  UNL1        0.0806
     30 O         144.8335  143.5810  165.4658 O.2     1  UNL1        0.0415
     31 O         143.7302  145.5327  164.1530 O.co2   1  UNL1       -0.5760
@<TRIPOS>UNITY_ATOM_ATTR
29 1
charge 1
31 1
charge -1
@<TRIPOS>BOND
     1     1     2    2
     2     2    18    1
     3    18    19    1
     4    19    20    1
     5    20    21    2
     6    21    22    1
     7    22    23    2
     8    23    24    1
     9    24    29    1
    10    29    30    2
    11    29    31    1
    12    24    25    2
    13    25    26    1
    14    26    27    1
    15    27    28    2
    16     2     3   am
    17     3     5    1
    18     5     6   ar
    19     6     7   ar
    20     7     8   ar
    21     8    11    1
    22    11    12    1
    23    12    13   ar
    24    13    14   ar
    25    14    15   ar
    26    15    16   ar
    27    16    17   ar
    28     8     9   ar
    29     9    10   ar
    30    28    20    1
    31    10     5   ar
    32    27    22    1
    33    17    12   ar
    34     3     4    1
@<TRIPOS>MOLECULE
*****
 31 34 0 0 0
SMALL
GASTEIGER

@<TRIPOS>ATOM
      1 O         142.3324  138.1172  159.5712 O.2     1  UNL1       -0.2738
      2 C         141.3077  138.1167  158.4758 C.2     1  UNL1        0.2376
      3 N         139.9032  138.5589  158.7623 N.am    1  UNL1       -0.2832
      4 H         139.2307  138.5585  158.0434 H       1  UNL1        0.1549
      5 C         139.5236  139.0016  160.1443 C.ar    1  UNL1        0.0505
      6 C         138.8465  138.0437  161.0792 C.ar    1  UNL1        0.0178
      7 C         138.4669  138.4864  162.4612 C.ar    1  UNL1        0.0388
      8 C         138.7642  139.8870  162.9083 C.ar    1  UNL1        0.1454
      9 C         139.4413  140.8449  161.9733 C.ar    1  UNL1        0.0388
     10 C         139.8210  140.4022  160.5914 C.ar    1  UNL1        0.0178
     11 O         138.3846  140.3297  164.2902 O.3     1  UNL1       -0.4535
     12 C         138.5668  141.7624  164.6954 C.ar    1  UNL1        0.1453
     13 C         139.7499  142.1621  165.5265 C.ar    1  UNL1        0.0375
     14 C         139.9321  143.5948  165.9317 C.ar    1  UNL1        0.0031
     15 C         138.9313  144.6278  165.5058 C.ar    1  UNL1        0.0002
     16 C         137.7483  144.2281  164.6747 C.ar    1  UNL1        0.0031
     17 C         137.5660  142.7954  164.2695 C.ar    1  UNL1        0.0375
     18 C         141.6874  137.6740  157.0938 C.3     1  UNL1        0.1501
     19 S         142.8746  136.7796  156.8924 S.3     1  UNL1       -0.0659
     20 C         142.6748  135.3207  156.6071 C.2     1  UNL1        0.1902
     21 N         143.4038  134.1859  157.2635 N.2     1  UNL1       -0.2198
     22 C         142.8904  132.9042  156.6773 C.2     1  UNL1        0.1034
     23 C         143.2405  131.4694  156.9395 C.2     1  UNL1        0.0953
     24 C         142.5442  130.3772  156.1831 C.2     1  UNL1        0.2878
     25 C         141.4979  130.7198  155.1644 C.2     1  UNL1        0.0555
     26 C         141.1478  132.1546  154.9021 C.3     1  UNL1        0.0798
     27 C         141.8440  133.2468  155.6586 C.2     1  UNL1        0.0835
     28 N         141.7108  134.7402  155.6152 N.2     1  UNL1       -0.2237
     29 N         142.8943  128.9424  156.4453 N.pl3   1  UNL1        0.0806
     30 O         143.7658  128.5842  157.6124 O.2     1  UNL1        0.0415
     31 O         142.3729  127.8657  155.5404 O.co2   1  UNL1       -0.5760
@<TRIPOS>UNITY_ATOM_ATTR
29 1
charge 1
31 1
charge -1
@<TRIPOS>BOND
     1     1     2    2
     2     2    18    1
     3    18    19    1
     4    19    20    1
     5    20    21    2
     6    21    22    1
     7    22    23    2
     8    23    24    1
     9    24    29    1
    10    29    30    2
    11    29    31    1
    12    24    25    2
    13    25    26    1
    14    26    27    1
    15    27    28    2
    16     2     3   am
    17     3     5    1
    18     5     6   ar
    19     6     7   ar
    20     7     8   ar
    21     8    11    1
    22    11    12    1
    23    12    13   ar
    24    13    14   ar
    25    14    15   ar
    26    15    16   ar
    27    16    17   ar
    28     8     9   ar
    29     9    10   ar
    30    28    20    1
    31    10     5   ar
    32    27    22    1
    33    17    12   ar
    34     3     4    1
@<TRIPOS>MOLECULE
*****
 31 34 0 0 0
SMALL
GASTEIGER

@<TRIPOS>ATOM
      1 O         137.6270  140.0467  158.4348 O.2     1  UNL1       -0.2738
      2 C         137.8980  141.4539  157.9918 C.2     1  UNL1        0.2376
      3 N         138.5978  142.4087  158.9132 N.am    1  UNL1       -0.2832
      4 H         138.7757  143.3323  158.6224 H       1  UNL1        0.1549
      5 C         139.0265  141.9561  160.2775 C.ar    1  UNL1        0.0505
      6 C         140.4419  141.5187  160.5122 C.ar    1  UNL1        0.0178
      7 C         140.8706  141.0661  161.8766 C.ar    1  UNL1        0.0388
      8 C         139.8839  141.0511  163.0062 C.ar    1  UNL1        0.1454
      9 C         138.4684  141.4885  162.7715 C.ar    1  UNL1        0.0388
     10 C         138.0397  141.9411  161.4072 C.ar    1  UNL1        0.0178
     11 O         140.3126  140.5985  164.3705 O.3     1  UNL1       -0.4535
     12 C         139.5027  139.5754  165.1103 C.ar    1  UNL1        0.1453
     13 C         139.3978  138.1759  164.5807 C.ar    1  UNL1        0.0375
     14 C         138.5879  137.1528  165.3204 C.ar    1  UNL1        0.0031
     15 C         137.8828  137.5292  166.5897 C.ar    1  UNL1        0.0002
     16 C         137.9877  138.9286  167.1194 C.ar    1  UNL1        0.0031
     17 C         138.7977  139.9518  166.3796 C.ar    1  UNL1        0.0375
     18 C         137.4693  141.9064  156.6275 C.3     1  UNL1        0.1501
     19 S         136.6897  140.9811  155.7410 S.3     1  UNL1       -0.0659
     20 C         135.2119  140.8194  155.9404 C.2     1  UNL1        0.1902
     21 N         134.1358  141.5372  155.1809 N.2     1  UNL1       -0.2198
     22 C         132.8095  141.0729  155.7055 C.2     1  UNL1        0.1034
     23 C         131.4015  141.4352  155.3364 C.2     1  UNL1        0.0953
     24 C         130.2499  140.7927  156.0510 C.2     1  UNL1        0.2878
     25 C         130.5061  139.7878  157.1348 C.2     1  UNL1        0.0555
     26 C         131.9141  139.4255  157.5039 C.3     1  UNL1        0.0798
     27 C         133.0658  140.0680  156.7893 C.2     1  UNL1        0.0835
     28 N         134.5505  139.9113  156.9345 N.2     1  UNL1       -0.2237
     29 N         128.8418  141.1550  155.6819 N.pl3   1  UNL1        0.0806
     30 O         128.5833  142.0903  154.5381 O.2     1  UNL1        0.0415
     31 O         127.6923  140.5821  156.4567 O.co2   1  UNL1       -0.5760
@<TRIPOS>UNITY_ATOM_ATTR
29 1
charge 1
31 1
charge -1
@<TRIPOS>BOND
     1     1     2    2
     2     2    18    1
     3    18    19    1
     4    19    20    1
     5    20    21    2
     6    21    22    1
     7    22    23    2
     8    23    24    1
     9    24    29    1
    10    29    30    2
    11    29    31    1
    12    24    25    2
    13    25    26    1
    14    26    27    1
    15    27    28    2
    16     2     3   am
    17     3     5    1
    18     5     6   ar
    19     6     7   ar
    20     7     8   ar
    21     8    11    1
    22    11    12    1
    23    12    13   ar
    24    13    14   ar
    25    14    15   ar
    26    15    16   ar
    27    16    17   ar
    28     8     9   ar
    29     9    10   ar
    30    28    20    1
    31    10     5   ar
    32    27    22    1
    33    17    12   ar
    34     3     4    1
