@<TRIPOS>MOLECULE
*****
 47 50 0 0 0
SMALL
GASTEIGER

@<TRIPOS>ATOM
      1 C         140.6758  144.9383  160.2527 C.3     1  UNL1        0.0412
      2 C         140.3210  145.5637  158.9363 C.3     1  UNL1        0.0249
      3 C         141.2062  144.9636  157.8845 C.3     1  UNL1        0.0935
      4 N         142.1081  143.9673  158.5509 N.am    1  UNL1       -0.2795
      5 C         143.1541  143.1331  157.8727 C.2     1  UNL1        0.2256
      6 O         143.3699  143.2576  156.3935 O.2     1  UNL1       -0.2749
      7 C         141.7802  143.9517  160.0145 C.3     1  UNL1        0.0951
      8 C         140.0380  145.2456  161.5752 C.3     1  UNL1        0.0914
      9 C         140.8535  144.2224  163.8198 C.2     1  UNL1        0.2458
     10 O         141.8573  145.3282  163.9592 O.2     1  UNL1       -0.2701
     11 N         139.9438  144.1811  162.6278 N.am    1  UNL1       -0.3008
     12 H         139.2850  143.4553  162.5363 H       1  UNL1        0.1497
     13 C         140.5708  141.0289  166.9776 C.ar    1  UNL1        0.1306
     14 C         141.1655  142.3645  167.3128 C.ar    1  UNL1        0.0110
     15 C         141.2597  143.4290  166.2602 C.ar    1  UNL1        0.0032
     16 C         140.7593  143.1579  164.8724 C.ar    1  UNL1        0.0529
     17 C         140.1646  141.8222  164.5372 C.ar    1  UNL1        0.0032
     18 C         140.0704  140.7577  165.5898 C.ar    1  UNL1        0.0110
     19 C         141.6660  142.6357  168.7006 C.3     1  UNL1        0.0218
     20 C         140.3609  143.2908  169.0433 C.3     1  UNL1        0.0045
     21 C         142.9711  141.9806  168.3579 C.3     1  UNL1        0.0045
     22 C         142.1666  142.9068  170.0883 C.3     1  UNL1        0.0045
     23 C         139.4757  139.4220  165.2546 C.3     1  UNL1        0.0218
     24 C         140.8509  138.8274  165.1842 C.3     1  UNL1        0.0045
     25 C         138.1004  140.0166  165.3249 C.3     1  UNL1        0.0045
     26 C         138.8810  138.0864  164.9193 C.3     1  UNL1        0.0045
     27 C         139.2756  139.9000  168.9264 C.3     1  UNL1        0.2524
     28 O         140.4766  139.9643  168.0302 O.3     1  UNL1       -0.4721
     29 C         143.9844  142.1744  158.6737 C.3     1  UNL1        0.0853
     30 C         144.1405  140.7542  158.2166 C.3     1  UNL1        0.0096
     31 C         143.5556  139.6366  159.0282 C.3     1  UNL1        0.0012
     32 C         143.8866  139.5156  160.4862 C.3     1  UNL1        0.0087
     33 C         142.9528  140.0784  161.5165 C.3     1  UNL1        0.0446
     34 C         143.4774  140.9899  162.5860 C.ar    1  UNL1       -0.0183
     35 C         143.5774  140.5050  164.0020 C.ar    1  UNL1       -0.0017
     36 C         144.1020  141.4166  165.0715 C.ar    1  UNL1        0.0293
     37 C         144.5265  142.8129  164.7252 C.ar    1  UNL1        0.1401
     38 F         145.0511  143.7244  165.7948 F       1  UNL1       -0.2042
     39 C         144.4265  143.2977  163.3092 C.ar    1  UNL1        0.0293
     40 C         143.9020  142.3862  162.2396 C.ar    1  UNL1       -0.0017
     41 C         141.4945  139.7296  161.4772 C.ar    1  UNL1       -0.0183
     42 C         141.0633  138.2961  161.5722 C.ar    1  UNL1       -0.0017
     43 C         139.6049  137.9472  161.5329 C.ar    1  UNL1        0.0293
     44 C         138.5777  139.0320  161.3985 C.ar    1  UNL1        0.1401
     45 F         137.1194  138.6832  161.3591 F       1  UNL1       -0.2042
     46 C         139.0089  140.4656  161.3034 C.ar    1  UNL1        0.0293
     47 C         140.4672  140.8144  161.3428 C.ar    1  UNL1       -0.0017
@<TRIPOS>BOND
     1    27    28    1
     2    28    13    1
     3    13    14   ar
     4    14    19    1
     5    19    20    1
     6    19    21    1
     7    19    22    1
     8    14    15   ar
     9    15    16   ar
    10    16     9    1
    11     9    10    2
    12     9    11   am
    13    11     8    1
    14     1     8    1
    15     1     2    1
    16     2     3    1
    17     3     4    1
    18     4     5   am
    19     5     6    2
    20     5    29    1
    21    29    30    1
    22    30    31    1
    23    31    32    1
    24    32    33    1
    25    33    34    1
    26    34    35   ar
    27    35    36   ar
    28    36    37   ar
    29    37    38    1
    30    37    39   ar
    31    39    40   ar
    32    33    41    1
    33    41    42   ar
    34    42    43   ar
    35    43    44   ar
    36    44    45    1
    37    44    46   ar
    38    46    47   ar
    39     4     7    1
    40    16    17   ar
    41    17    18   ar
    42    18    23    1
    43    23    24    1
    44    23    25    1
    45    23    26    1
    46    18    13   ar
    47     7     1    1
    48    40    34   ar
    49    47    41   ar
    50    11    12    1
@<TRIPOS>MOLECULE
*****
 47 50 0 0 0
SMALL
GASTEIGER

@<TRIPOS>ATOM
      1 C         140.4692  144.7591  160.3459 C.3     1  UNL1        0.0412
      2 C         140.4024  145.5838  159.0948 C.3     1  UNL1        0.0249
      3 C         141.3260  144.9698  158.0849 C.3     1  UNL1        0.0935
      4 N         141.9637  143.7655  158.7119 N.am    1  UNL1       -0.2795
      5 C         142.9566  142.8519  158.0566 C.2     1  UNL1        0.2256
      6 O         143.3952  143.1093  156.6454 O.2     1  UNL1       -0.2749
      7 C         141.4342  143.6353  160.1093 C.3     1  UNL1        0.0951
      8 C         139.7052  145.0134  161.6115 C.3     1  UNL1        0.0914
      9 C         140.6357  144.0850  163.8525 C.2     1  UNL1        0.2458
     10 O         141.6053  145.2272  163.9231 O.2     1  UNL1       -0.2701
     11 N         139.6856  143.9781  162.6967 N.am    1  UNL1       -0.3008
     12 H         139.0492  143.2284  162.6503 H       1  UNL1        0.1497
     13 C         140.5770  140.9789  167.1081 C.ar    1  UNL1        0.1306
     14 C         141.1284  142.3459  167.3856 C.ar    1  UNL1        0.0110
     15 C         141.1480  143.3813  166.3004 C.ar    1  UNL1        0.0032
     16 C         140.6161  143.0496  164.9377 C.ar    1  UNL1        0.0529
     17 C         140.0647  141.6826  164.6602 C.ar    1  UNL1        0.0032
     18 C         140.0451  140.6472  165.7453 C.ar    1  UNL1        0.0110
     19 C         141.6603  142.6777  168.7484 C.3     1  UNL1        0.0218
     20 C         140.3625  143.3467  169.0921 C.3     1  UNL1        0.0045
     21 C         142.9580  142.0086  168.4047 C.3     1  UNL1        0.0045
     22 C         142.1922  143.0094  170.1111 C.3     1  UNL1        0.0045
     23 C         139.4936  139.2801  165.4677 C.3     1  UNL1        0.0218
     24 C         140.8886  138.7388  165.3624 C.3     1  UNL1        0.0045
     25 C         138.0987  139.8213  165.5731 C.3     1  UNL1        0.0045
     26 C         138.9422  137.9130  165.1902 C.3     1  UNL1        0.0045
     27 C         139.4136  139.8944  169.1624 C.3     1  UNL1        0.2524
     28 O         140.5574  139.9435  168.1933 O.3     1  UNL1       -0.4721
     29 C         143.5110  141.6809  158.8124 C.3     1  UNL1        0.0853
     30 C         143.2377  140.2844  158.3377 C.3     1  UNL1        0.0096
     31 C         143.3920  139.1281  159.2806 C.3     1  UNL1        0.0012
     32 C         143.8506  139.3648  160.6889 C.3     1  UNL1        0.0087
     33 C         142.9102  139.9615  161.6937 C.3     1  UNL1        0.0446
     34 C         141.4568  139.5914  161.6731 C.ar    1  UNL1       -0.0183
     35 C         141.0437  138.1632  161.8719 C.ar    1  UNL1       -0.0017
     36 C         139.5902  137.7930  161.8512 C.ar    1  UNL1        0.0293
     37 C         138.5498  138.8511  161.6318 C.ar    1  UNL1        0.1401
     38 F         137.0964  138.4809  161.6111 F       1  UNL1       -0.2042
     39 C         138.9630  140.2793  161.4330 C.ar    1  UNL1        0.0293
     40 C         140.4165  140.6494  161.4536 C.ar    1  UNL1       -0.0017
     41 C         143.4234  140.9285  162.7192 C.ar    1  UNL1       -0.0183
     42 C         143.5422  140.5074  164.1540 C.ar    1  UNL1       -0.0017
     43 C         144.0554  141.4743  165.1795 C.ar    1  UNL1        0.0293
     44 C         144.4498  142.8624  164.7702 C.ar    1  UNL1        0.1401
     45 F         144.9630  143.8294  165.7957 F       1  UNL1       -0.2042
     46 C         144.3310  143.2836  163.3355 C.ar    1  UNL1        0.0293
     47 C         143.8178  142.3167  162.3100 C.ar    1  UNL1       -0.0017
@<TRIPOS>BOND
     1    27    28    1
     2    28    13    1
     3    13    14   ar
     4    14    19    1
     5    19    20    1
     6    19    21    1
     7    19    22    1
     8    14    15   ar
     9    15    16   ar
    10    16     9    1
    11     9    10    2
    12     9    11   am
    13    11     8    1
    14     1     8    1
    15     1     2    1
    16     2     3    1
    17     3     4    1
    18     4     5   am
    19     5     6    2
    20     5    29    1
    21    29    30    1
    22    30    31    1
    23    31    32    1
    24    32    33    1
    25    33    34    1
    26    34    35   ar
    27    35    36   ar
    28    36    37   ar
    29    37    38    1
    30    37    39   ar
    31    39    40   ar
    32    33    41    1
    33    41    42   ar
    34    42    43   ar
    35    43    44   ar
    36    44    45    1
    37    44    46   ar
    38    46    47   ar
    39     4     7    1
    40    16    17   ar
    41    17    18   ar
    42    18    23    1
    43    23    24    1
    44    23    25    1
    45    23    26    1
    46    18    13   ar
    47     7     1    1
    48    40    34   ar
    49    47    41   ar
    50    11    12    1
@<TRIPOS>MOLECULE
*****
 47 50 0 0 0
SMALL
GASTEIGER

@<TRIPOS>ATOM
      1 C         140.5845  144.9328  160.3114 C.3     1  UNL1        0.0412
      2 C         140.3391  145.6477  159.0158 C.3     1  UNL1        0.0249
      3 C         141.2247  145.0336  157.9725 C.3     1  UNL1        0.0935
      4 N         142.0175  143.9391  158.6234 N.am    1  UNL1       -0.2795
      5 C         143.0285  143.0610  157.9474 C.2     1  UNL1        0.2256
      6 O         143.3215  143.2411  156.4874 O.2     1  UNL1       -0.2749
      7 C         141.6219  143.8769  160.0689 C.3     1  UNL1        0.0951
      8 C         139.9109  145.2230  161.6199 C.3     1  UNL1        0.0914
      9 C         140.7770  144.2090  163.8496 C.2     1  UNL1        0.2458
     10 O         141.7836  145.3154  163.9617 O.2     1  UNL1       -0.2701
     11 N         139.8406  144.1628  162.6787 N.am    1  UNL1       -0.3008
     12 H         139.1800  143.4366  162.6050 H       1  UNL1        0.1497
     13 C         140.5663  141.0283  167.0259 C.ar    1  UNL1        0.1306
     14 C         140.0644  140.7406  165.6419 C.ar    1  UNL1        0.0110
     15 C         140.1346  141.8008  164.5832 C.ar    1  UNL1        0.0032
     16 C         140.7067  143.1487  164.9083 C.ar    1  UNL1        0.0529
     17 C         141.2086  143.4364  166.2923 C.ar    1  UNL1        0.0032
     18 C         141.1384  142.3762  167.3510 C.ar    1  UNL1        0.0110
     19 C         139.4922  139.3926  165.3167 C.3     1  UNL1        0.0218
     20 C         138.1089  139.9717  165.3500 C.3     1  UNL1        0.0045
     21 C         140.8755  138.8136  165.2834 C.3     1  UNL1        0.0045
     22 C         138.9201  138.0447  164.9915 C.3     1  UNL1        0.0045
     23 C         141.6403  142.6639  168.7350 C.3     1  UNL1        0.0218
     24 C         142.9421  141.9975  168.4014 C.3     1  UNL1        0.0045
     25 C         140.3386  143.3303  169.0686 C.3     1  UNL1        0.0045
     26 C         142.1423  142.9516  170.1189 C.3     1  UNL1        0.0045
     27 C         139.2985  139.8844  168.9840 C.3     1  UNL1        0.2524
     28 O         140.4960  139.9680  168.0846 O.3     1  UNL1       -0.4721
     29 C         143.7466  142.0030  158.7315 C.3     1  UNL1        0.0853
     30 C         143.1672  140.6232  158.8351 C.3     1  UNL1        0.0096
     31 C         143.9958  139.5013  159.3869 C.3     1  UNL1        0.0012
     32 C         143.8177  139.0678  160.8117 C.3     1  UNL1        0.0087
     33 C         142.8723  139.8102  161.7090 C.3     1  UNL1        0.0446
     34 C         143.4030  140.8003  162.7029 C.ar    1  UNL1       -0.0183
     35 C         143.5212  140.4212  164.1493 C.ar    1  UNL1       -0.0017
     36 C         144.0519  141.4114  165.1433 C.ar    1  UNL1        0.0293
     37 C         144.4645  142.7807  164.6907 C.ar    1  UNL1        0.1401
     38 F         144.9952  143.7709  165.6847 F       1  UNL1       -0.2042
     39 C         144.3463  143.1598  163.2443 C.ar    1  UNL1        0.0293
     40 C         143.8156  142.1696  162.2503 C.ar    1  UNL1       -0.0017
     41 C         141.3961  139.5623  161.6123 C.ar    1  UNL1       -0.0183
     42 C         140.8668  138.1594  161.6531 C.ar    1  UNL1       -0.0017
     43 C         139.3906  137.9115  161.5564 C.ar    1  UNL1        0.0293
     44 C         138.4436  139.0666  161.4189 C.ar    1  UNL1        0.1401
     45 F         136.9674  138.8187  161.3222 F       1  UNL1       -0.2042
     46 C         138.9728  140.4696  161.3780 C.ar    1  UNL1        0.0293
     47 C         140.4490  140.7174  161.4747 C.ar    1  UNL1       -0.0017
@<TRIPOS>BOND
     1    27    28    1
     2    28    13    1
     3    13    14   ar
     4    14    19    1
     5    19    20    1
     6    19    21    1
     7    19    22    1
     8    14    15   ar
     9    15    16   ar
    10    16     9    1
    11     9    10    2
    12     9    11   am
    13    11     8    1
    14     1     8    1
    15     1     2    1
    16     2     3    1
    17     3     4    1
    18     4     5   am
    19     5     6    2
    20     5    29    1
    21    29    30    1
    22    30    31    1
    23    31    32    1
    24    32    33    1
    25    33    34    1
    26    34    35   ar
    27    35    36   ar
    28    36    37   ar
    29    37    38    1
    30    37    39   ar
    31    39    40   ar
    32    33    41    1
    33    41    42   ar
    34    42    43   ar
    35    43    44   ar
    36    44    45    1
    37    44    46   ar
    38    46    47   ar
    39     4     7    1
    40    16    17   ar
    41    17    18   ar
    42    18    23    1
    43    23    24    1
    44    23    25    1
    45    23    26    1
    46    18    13   ar
    47     7     1    1
    48    40    34   ar
    49    47    41   ar
    50    11    12    1
@<TRIPOS>MOLECULE
*****
 47 50 0 0 0
SMALL
GASTEIGER

@<TRIPOS>ATOM
      1 C         140.4831  145.1192  160.4330 C.3     1  UNL1        0.0412
      2 C         140.2115  145.8482  159.1505 C.3     1  UNL1        0.0249
      3 C         141.0701  145.2406  158.0811 C.3     1  UNL1        0.0935
      4 N         141.8723  144.1359  158.7027 N.am    1  UNL1       -0.2795
      5 C         142.8633  143.2601  157.9950 C.2     1  UNL1        0.2256
      6 O         143.1237  143.4535  156.5305 O.2     1  UNL1       -0.2749
      7 C         141.5095  144.0610  160.1563 C.3     1  UNL1        0.0951
      8 C         139.8410  145.3993  161.7594 C.3     1  UNL1        0.0914
      9 C         140.7718  144.2744  163.9084 C.2     1  UNL1        0.2458
     10 O         141.8563  145.3081  163.9797 O.2     1  UNL1       -0.2701
     11 N         139.7641  144.3200  162.7983 N.am    1  UNL1       -0.3008
     12 H         139.0522  143.6415  162.7515 H       1  UNL1        0.1497
     13 C         140.5411  141.0365  167.0249 C.ar    1  UNL1        0.1306
     14 C         140.0365  140.7781  165.6362 C.ar    1  UNL1        0.0110
     15 C         140.1134  141.8574  164.5974 C.ar    1  UNL1        0.0032
     16 C         140.6949  143.1951  164.9473 C.ar    1  UNL1        0.0529
     17 C         141.1994  143.4535  166.3360 C.ar    1  UNL1        0.0032
     18 C         141.1226  142.3742  167.3748 C.ar    1  UNL1        0.0110
     19 C         139.4550  139.4404  165.2863 C.3     1  UNL1        0.0218
     20 C         138.0729  140.0134  165.3920 C.3     1  UNL1        0.0045
     21 C         140.8371  138.8673  165.1805 C.3     1  UNL1        0.0045
     22 C         138.8736  138.1027  164.9363 C.3     1  UNL1        0.0045
     23 C         141.6272  142.6326  168.7636 C.3     1  UNL1        0.0218
     24 C         140.3330  143.3082  169.1081 C.3     1  UNL1        0.0045
     25 C         142.9213  141.9570  168.4191 C.3     1  UNL1        0.0045
     26 C         142.1317  142.8910  170.1523 C.3     1  UNL1        0.0045
     27 C         139.2879  139.8922  168.9922 C.3     1  UNL1        0.2524
     28 O         140.4642  139.9572  168.0638 O.3     1  UNL1       -0.4721
     29 C         143.5940  142.1909  158.7518 C.3     1  UNL1        0.0853
     30 C         143.0633  140.7880  158.7687 C.3     1  UNL1        0.0096
     31 C         143.9232  139.6668  159.2721 C.3     1  UNL1        0.0012
     32 C         143.9022  139.3003  160.7264 C.3     1  UNL1        0.0087
     33 C         142.9466  139.9843  161.6586 C.3     1  UNL1        0.0446
     34 C         141.4761  139.7045  161.5634 C.ar    1  UNL1       -0.0183
     35 C         140.9823  138.2883  161.5363 C.ar    1  UNL1       -0.0017
     36 C         139.5117  138.0085  161.4410 C.ar    1  UNL1        0.0293
     37 C         138.5349  139.1448  161.3729 C.ar    1  UNL1        0.1401
     38 F         137.0643  138.8649  161.2776 F       1  UNL1       -0.2042
     39 C         139.0287  140.5609  161.4000 C.ar    1  UNL1        0.0293
     40 C         140.4993  140.8407  161.4952 C.ar    1  UNL1       -0.0017
     41 C         143.4616  140.9481  162.6861 C.ar    1  UNL1       -0.0183
     42 C         143.5445  140.5362  164.1261 C.ar    1  UNL1       -0.0017
     43 C         144.0595  141.5001  165.1535 C.ar    1  UNL1        0.0293
     44 C         144.4918  142.8759  164.7411 C.ar    1  UNL1        0.1401
     45 F         145.0068  143.8398  165.7685 F       1  UNL1       -0.2042
     46 C         144.4090  143.2879  163.3011 C.ar    1  UNL1        0.0293
     47 C         143.8939  142.3241  162.2736 C.ar    1  UNL1       -0.0017
@<TRIPOS>BOND
     1    27    28    1
     2    28    13    1
     3    13    14   ar
     4    14    19    1
     5    19    20    1
     6    19    21    1
     7    19    22    1
     8    14    15   ar
     9    15    16   ar
    10    16     9    1
    11     9    10    2
    12     9    11   am
    13    11     8    1
    14     1     8    1
    15     1     2    1
    16     2     3    1
    17     3     4    1
    18     4     5   am
    19     5     6    2
    20     5    29    1
    21    29    30    1
    22    30    31    1
    23    31    32    1
    24    32    33    1
    25    33    34    1
    26    34    35   ar
    27    35    36   ar
    28    36    37   ar
    29    37    38    1
    30    37    39   ar
    31    39    40   ar
    32    33    41    1
    33    41    42   ar
    34    42    43   ar
    35    43    44   ar
    36    44    45    1
    37    44    46   ar
    38    46    47   ar
    39     4     7    1
    40    16    17   ar
    41    17    18   ar
    42    18    23    1
    43    23    24    1
    44    23    25    1
    45    23    26    1
    46    18    13   ar
    47     7     1    1
    48    40    34   ar
    49    47    41   ar
    50    11    12    1
@<TRIPOS>MOLECULE
*****
 47 50 0 0 0
SMALL
GASTEIGER

@<TRIPOS>ATOM
      1 C         140.1427  145.0050  161.0559 C.3     1  UNL1        0.0412
      2 C         140.6939  145.6863  159.8385 C.3     1  UNL1        0.0249
      3 C         140.3456  144.8511  158.6423 C.3     1  UNL1        0.0935
      4 N         139.5791  143.6536  159.1204 N.am    1  UNL1       -0.2795
      5 C         139.0337  142.5540  158.2581 C.2     1  UNL1        0.2256
      6 O         139.2384  142.5942  156.7727 O.2     1  UNL1       -0.2749
      7 C         139.4537  143.7488  160.6121 C.3     1  UNL1        0.0951
      8 C         140.2599  145.4942  162.4691 C.3     1  UNL1        0.0914
      9 C         139.9021  143.8095  164.4143 C.2     1  UNL1        0.2458
     10 O         138.4167  143.9223  164.2387 O.2     1  UNL1       -0.2701
     11 N         140.8237  144.5955  163.5295 N.am    1  UNL1       -0.3008
     12 H         141.7986  144.5216  163.6448 H       1  UNL1        0.1497
     13 C         141.5935  141.1134  167.5955 C.ar    1  UNL1        0.1306
     14 C         142.0537  140.9771  166.1744 C.ar    1  UNL1        0.0110
     15 C         141.4899  141.8758  165.1140 C.ar    1  UNL1        0.0032
     16 C         140.4659  142.9108  165.4747 C.ar    1  UNL1        0.0529
     17 C         140.0057  143.0471  166.8958 C.ar    1  UNL1        0.0032
     18 C         140.5695  142.1484  167.9562 C.ar    1  UNL1        0.0110
     19 C         143.0777  139.9420  165.8136 C.3     1  UNL1        0.0218
     20 C         144.0407  141.0273  165.4333 C.3     1  UNL1        0.0045
     21 C         142.1147  138.8568  166.1940 C.3     1  UNL1        0.0045
     22 C         144.1017  138.9070  165.4529 C.3     1  UNL1        0.0045
     23 C         140.1093  142.2848  169.3774 C.3     1  UNL1        0.0218
     24 C         139.4314  140.9499  169.2859 C.3     1  UNL1        0.0045
     25 C         140.7872  143.6197  169.4689 C.3     1  UNL1        0.0045
     26 C         139.6491  142.4211  170.7985 C.3     1  UNL1        0.0045
     27 C         143.1333  140.7570  169.6575 C.3     1  UNL1        0.2524
     28 O         142.1573  140.2147  168.6559 O.3     1  UNL1       -0.4721
     29 C         138.2837  141.4142  158.8813 C.3     1  UNL1        0.0853
     30 C         138.9640  140.0937  159.0902 C.3     1  UNL1        0.0096
     31 C         138.4717  139.1562  160.1525 C.3     1  UNL1        0.0012
     32 C         139.4511  138.3582  160.9610 C.3     1  UNL1        0.0087
     33 C         140.1015  138.9684  162.1671 C.3     1  UNL1        0.0446
     34 C         139.4357  138.8720  163.5077 C.ar    1  UNL1       -0.0183
     35 C         139.4267  137.5677  164.2486 C.ar    1  UNL1       -0.0017
     36 C         138.7608  137.4713  165.5893 C.ar    1  UNL1        0.0293
     37 C         138.1040  138.6791  166.1891 C.ar    1  UNL1        0.1401
     38 F         137.4382  138.5827  167.5298 F       1  UNL1       -0.2042
     39 C         138.1131  139.9833  165.4482 C.ar    1  UNL1        0.0293
     40 C         138.7789  140.0798  164.1076 C.ar    1  UNL1       -0.0017
     41 C         141.4177  139.6750  162.0325 C.ar    1  UNL1       -0.0183
     42 C         141.4548  141.1634  161.8495 C.ar    1  UNL1       -0.0017
     43 C         142.7710  141.8700  161.7149 C.ar    1  UNL1        0.0293
     44 C         144.0503  141.0883  161.7632 C.ar    1  UNL1        0.1401
     45 F         145.3665  141.7950  161.6286 F       1  UNL1       -0.2042
     46 C         144.0133  139.6000  161.9463 C.ar    1  UNL1        0.0293
     47 C         142.6971  138.8933  162.0809 C.ar    1  UNL1       -0.0017
@<TRIPOS>BOND
     1    27    28    1
     2    28    13    1
     3    13    14   ar
     4    14    19    1
     5    19    20    1
     6    19    21    1
     7    19    22    1
     8    14    15   ar
     9    15    16   ar
    10    16     9    1
    11     9    10    2
    12     9    11   am
    13    11     8    1
    14     1     8    1
    15     1     2    1
    16     2     3    1
    17     3     4    1
    18     4     5   am
    19     5     6    2
    20     5    29    1
    21    29    30    1
    22    30    31    1
    23    31    32    1
    24    32    33    1
    25    33    34    1
    26    34    35   ar
    27    35    36   ar
    28    36    37   ar
    29    37    38    1
    30    37    39   ar
    31    39    40   ar
    32    33    41    1
    33    41    42   ar
    34    42    43   ar
    35    43    44   ar
    36    44    45    1
    37    44    46   ar
    38    46    47   ar
    39     4     7    1
    40    16    17   ar
    41    17    18   ar
    42    18    23    1
    43    23    24    1
    44    23    25    1
    45    23    26    1
    46    18    13   ar
    47     7     1    1
    48    40    34   ar
    49    47    41   ar
    50    11    12    1
@<TRIPOS>MOLECULE
*****
 47 50 0 0 0
SMALL
GASTEIGER

@<TRIPOS>ATOM
      1 C         140.1321  145.0454  161.0850 C.3     1  UNL1        0.0412
      2 C         140.3446  145.8414  159.8316 C.3     1  UNL1        0.0249
      3 C         140.0602  144.9476  158.6610 C.3     1  UNL1        0.0935
      4 N         139.6719  143.5992  159.1911 N.am    1  UNL1       -0.2795
      5 C         139.3037  142.4007  158.3676 C.2     1  UNL1        0.2256
      6 O         139.3038  142.4908  156.8703 O.2     1  UNL1       -0.2749
      7 C         139.7163  143.6596  160.6892 C.3     1  UNL1        0.0951
      8 C         140.3049  145.5471  162.4881 C.3     1  UNL1        0.0914
      9 C         139.9151  143.8591  164.4241 C.2     1  UNL1        0.2458
     10 O         138.4323  143.9909  164.2404 O.2     1  UNL1       -0.2701
     11 N         140.8514  144.6372  163.5480 N.am    1  UNL1       -0.3008
     12 H         141.8247  144.5507  163.6685 H       1  UNL1        0.1497
     13 C         141.5545  141.1293  167.6038 C.ar    1  UNL1        0.1306
     14 C         140.5607  142.1923  167.9674 C.ar    1  UNL1        0.0110
     15 C         140.0142  143.1022  166.9075 C.ar    1  UNL1        0.0032
     16 C         140.4616  142.9491  165.4840 C.ar    1  UNL1        0.0529
     17 C         141.4554  141.8861  165.1204 C.ar    1  UNL1        0.0032
     18 C         142.0019  140.9762  166.1803 C.ar    1  UNL1        0.0110
     19 C         140.1133  142.3454  169.3910 C.3     1  UNL1        0.0218
     20 C         140.8200  143.6660  169.4711 C.3     1  UNL1        0.0045
     21 C         139.4066  141.0247  169.3109 C.3     1  UNL1        0.0045
     22 C         139.6659  142.4984  170.8145 C.3     1  UNL1        0.0045
     23 C         142.9958  139.9132  165.8166 C.3     1  UNL1        0.0218
     24 C         144.0002  140.9714  165.4686 C.3     1  UNL1        0.0045
     25 C         141.9914  138.8549  166.1647 C.3     1  UNL1        0.0045
     26 C         143.9897  138.8502  165.4530 C.3     1  UNL1        0.0045
     27 C         143.0967  140.7390  169.6579 C.3     1  UNL1        0.2524
     28 O         142.1010  140.2193  168.6637 O.3     1  UNL1       -0.4721
     29 C         138.9356  141.1121  159.0413 C.3     1  UNL1        0.0853
     30 C         139.7148  139.8639  158.7497 C.3     1  UNL1        0.0096
     31 C         139.6323  138.6929  159.6834 C.3     1  UNL1        0.0012
     32 C         138.9555  138.8407  161.0138 C.3     1  UNL1        0.0087
     33 C         139.7613  139.1863  162.2309 C.3     1  UNL1        0.0446
     34 C         139.1772  138.9883  163.5982 C.ar    1  UNL1       -0.0183
     35 C         139.1328  137.6165  164.2033 C.ar    1  UNL1       -0.0017
     36 C         138.5487  137.4185  165.5707 C.ar    1  UNL1        0.0293
     37 C         138.0089  138.5923  166.3328 C.ar    1  UNL1        0.1401
     38 F         137.4247  138.3942  167.7002 F       1  UNL1       -0.2042
     39 C         138.0532  139.9640  165.7277 C.ar    1  UNL1        0.0293
     40 C         138.6374  140.1620  164.3603 C.ar    1  UNL1       -0.0017
     41 C         141.1512  139.7298  162.0807 C.ar    1  UNL1       -0.0183
     42 C         141.3634  141.2007  161.8766 C.ar    1  UNL1       -0.0017
     43 C         142.7534  141.7443  161.7264 C.ar    1  UNL1        0.0293
     44 C         143.9312  140.8170  161.7801 C.ar    1  UNL1        0.1401
     45 F         145.3211  141.3606  161.6299 F       1  UNL1       -0.2042
     46 C         143.7190  139.3461  161.9841 C.ar    1  UNL1        0.0293
     47 C         142.3291  138.8025  162.1344 C.ar    1  UNL1       -0.0017
@<TRIPOS>BOND
     1    27    28    1
     2    28    13    1
     3    13    14   ar
     4    14    19    1
     5    19    20    1
     6    19    21    1
     7    19    22    1
     8    14    15   ar
     9    15    16   ar
    10    16     9    1
    11     9    10    2
    12     9    11   am
    13    11     8    1
    14     1     8    1
    15     1     2    1
    16     2     3    1
    17     3     4    1
    18     4     5   am
    19     5     6    2
    20     5    29    1
    21    29    30    1
    22    30    31    1
    23    31    32    1
    24    32    33    1
    25    33    34    1
    26    34    35   ar
    27    35    36   ar
    28    36    37   ar
    29    37    38    1
    30    37    39   ar
    31    39    40   ar
    32    33    41    1
    33    41    42   ar
    34    42    43   ar
    35    43    44   ar
    36    44    45    1
    37    44    46   ar
    38    46    47   ar
    39     4     7    1
    40    16    17   ar
    41    17    18   ar
    42    18    23    1
    43    23    24    1
    44    23    25    1
    45    23    26    1
    46    18    13   ar
    47     7     1    1
    48    40    34   ar
    49    47    41   ar
    50    11    12    1
@<TRIPOS>MOLECULE
*****
 47 50 0 0 0
SMALL
GASTEIGER

@<TRIPOS>ATOM
      1 C         140.1512  145.0258  161.0011 C.3     1  UNL1        0.0412
      2 C         140.3518  145.8262  159.7485 C.3     1  UNL1        0.0249
      3 C         140.0162  144.9489  158.5790 C.3     1  UNL1        0.0935
      4 N         139.6082  143.6062  159.1089 N.am    1  UNL1       -0.2795
      5 C         139.1902  142.4235  158.2863 C.2     1  UNL1        0.2256
      6 O         139.1549  142.5254  156.7902 O.2     1  UNL1       -0.2749
      7 C         139.6917  143.6537  160.6058 C.3     1  UNL1        0.0951
      8 C         140.3715  145.5120  162.4030 C.3     1  UNL1        0.0914
      9 C         139.9594  143.9207  164.4148 C.2     1  UNL1        0.2458
     10 O         138.4884  144.2041  164.3377 O.2     1  UNL1       -0.2701
     11 N         140.9009  144.5746  163.4475 N.am    1  UNL1       -0.3008
     12 H         141.8663  144.3886  163.4981 H       1  UNL1        0.1497
     13 C         141.5476  141.1084  167.5484 C.ar    1  UNL1        0.1306
     14 C         140.5614  142.1734  167.9269 C.ar    1  UNL1        0.0110
     15 C         140.0320  143.1108  166.8824 C.ar    1  UNL1        0.0032
     16 C         140.4888  142.9833  165.4593 C.ar    1  UNL1        0.0529
     17 C         141.4749  141.9183  165.0808 C.ar    1  UNL1        0.0032
     18 C         142.0043  140.9809  166.1253 C.ar    1  UNL1        0.0110
     19 C         140.1045  142.3009  169.3500 C.3     1  UNL1        0.0218
     20 C         140.7987  143.6266  169.4540 C.3     1  UNL1        0.0045
     21 C         139.4104  140.9753  169.2459 C.3     1  UNL1        0.0045
     22 C         139.6477  142.4285  170.7730 C.3     1  UNL1        0.0045
     23 C         142.9906  139.9159  165.7468 C.3     1  UNL1        0.0218
     24 C         144.0087  140.9712  165.4309 C.3     1  UNL1        0.0045
     25 C         141.9724  138.8607  166.0626 C.3     1  UNL1        0.0045
     26 C         143.9768  138.8511  165.3682 C.3     1  UNL1        0.0045
     27 C         143.0584  140.6637  169.6146 C.3     1  UNL1        0.2524
     28 O         142.0770  140.1710  168.5929 O.3     1  UNL1       -0.4721
     29 C         138.8075  141.1391  158.9597 C.3     1  UNL1        0.0853
     30 C         139.6240  139.9012  158.7334 C.3     1  UNL1        0.0096
     31 C         139.5014  138.7395  159.6742 C.3     1  UNL1        0.0012
     32 C         138.8484  138.9234  161.0119 C.3     1  UNL1        0.0087
     33 C         139.6840  139.2346  162.2181 C.3     1  UNL1        0.0446
     34 C         141.0764  139.7660  162.0491 C.ar    1  UNL1       -0.0183
     35 C         141.2966  141.2308  161.8125 C.ar    1  UNL1       -0.0017
     36 C         142.6891  141.7622  161.6435 C.ar    1  UNL1        0.0293
     37 C         143.8614  140.8289  161.7112 C.ar    1  UNL1        0.1401
     38 F         145.2540  141.3603  161.5422 F       1  UNL1       -0.2042
     39 C         143.6413  139.3641  161.9478 C.ar    1  UNL1        0.0293
     40 C         142.2487  138.8327  162.1168 C.ar    1  UNL1       -0.0017
     41 C         139.1270  139.0144  163.5934 C.ar    1  UNL1       -0.0183
     42 C         139.0756  137.6302  164.1691 C.ar    1  UNL1       -0.0017
     43 C         138.5186  137.4100  165.5443 C.ar    1  UNL1        0.0293
     44 C         138.0130  138.5740  166.3439 C.ar    1  UNL1        0.1401
     45 F         137.4560  138.3538  167.7191 F       1  UNL1       -0.2042
     46 C         138.0644  139.9583  165.7683 C.ar    1  UNL1        0.0293
     47 C         138.6214  140.1785  164.3930 C.ar    1  UNL1       -0.0017
@<TRIPOS>BOND
     1    27    28    1
     2    28    13    1
     3    13    14   ar
     4    14    19    1
     5    19    20    1
     6    19    21    1
     7    19    22    1
     8    14    15   ar
     9    15    16   ar
    10    16     9    1
    11     9    10    2
    12     9    11   am
    13    11     8    1
    14     1     8    1
    15     1     2    1
    16     2     3    1
    17     3     4    1
    18     4     5   am
    19     5     6    2
    20     5    29    1
    21    29    30    1
    22    30    31    1
    23    31    32    1
    24    32    33    1
    25    33    34    1
    26    34    35   ar
    27    35    36   ar
    28    36    37   ar
    29    37    38    1
    30    37    39   ar
    31    39    40   ar
    32    33    41    1
    33    41    42   ar
    34    42    43   ar
    35    43    44   ar
    36    44    45    1
    37    44    46   ar
    38    46    47   ar
    39     4     7    1
    40    16    17   ar
    41    17    18   ar
    42    18    23    1
    43    23    24    1
    44    23    25    1
    45    23    26    1
    46    18    13   ar
    47     7     1    1
    48    40    34   ar
    49    47    41   ar
    50    11    12    1
@<TRIPOS>MOLECULE
*****
 47 50 0 0 0
SMALL
GASTEIGER

@<TRIPOS>ATOM
      1 C         138.2060  141.2185  159.4439 C.3     1  UNL1        0.0412
      2 C         138.1172  140.2328  158.3167 C.3     1  UNL1        0.0249
      3 C         138.6233  140.9030  157.0739 C.3     1  UNL1        0.0935
      4 N         139.0251  142.3029  157.4330 N.am    1  UNL1       -0.2795
      5 C         139.5862  143.3279  156.4924 C.2     1  UNL1        0.2256
      6 O         139.7898  142.9867  155.0460 O.2     1  UNL1       -0.2749
      7 C         138.7671  142.4979  158.8977 C.3     1  UNL1        0.0951
      8 C         137.8043  140.9687  160.8674 C.3     1  UNL1        0.0914
      9 C         138.5397  141.1376  163.3535 C.2     1  UNL1        0.2458
     10 O         137.1739  141.6350  163.7237 O.2     1  UNL1       -0.2701
     11 N         138.8549  140.8044  161.9254 N.am    1  UNL1       -0.3008
     12 H         139.7513  140.4779  161.6824 H       1  UNL1        0.1497
     13 C         141.6915  140.6447  166.5274 C.ar    1  UNL1        0.1306
     14 C         140.3075  141.0819  166.9062 C.ar    1  UNL1        0.0110
     15 C         139.2569  141.2462  165.8482 C.ar    1  UNL1        0.0032
     16 C         139.5903  140.9733  164.4114 C.ar    1  UNL1        0.0529
     17 C         140.9742  140.5361  164.0326 C.ar    1  UNL1        0.0032
     18 C         142.0248  140.3718  165.0906 C.ar    1  UNL1        0.0110
     19 C         139.9741  141.3548  168.3430 C.3     1  UNL1        0.0218
     20 C         140.5682  142.7266  168.2204 C.3     1  UNL1        0.0045
     21 C         139.3800  139.9830  168.4657 C.3     1  UNL1        0.0045
     22 C         139.6407  141.6277  169.7798 C.3     1  UNL1        0.0045
     23 C         143.4088  139.9346  164.7117 C.3     1  UNL1        0.0218
     24 C         143.8737  141.3597  164.7654 C.3     1  UNL1        0.0045
     25 C         142.9440  138.5095  164.6580 C.3     1  UNL1        0.0045
     26 C         144.7928  139.4975  164.3328 C.3     1  UNL1        0.0045
     27 C         142.8867  139.1705  168.3017 C.3     1  UNL1        0.2524
     28 O         142.7421  140.4804  167.5853 O.3     1  UNL1       -0.4721
     29 C         139.9437  144.6940  156.9983 C.3     1  UNL1        0.0853
     30 C         141.3707  145.0242  157.3220 C.3     1  UNL1        0.0096
     31 C         142.0304  144.4065  158.5191 C.3     1  UNL1        0.0012
     32 C         141.6677  144.8710  159.8984 C.3     1  UNL1        0.0087
     33 C         141.5865  143.8841  161.0251 C.3     1  UNL1        0.0446
     34 C         142.3573  142.5993  160.9538 C.ar    1  UNL1       -0.0183
     35 C         143.8285  142.5901  161.2460 C.ar    1  UNL1       -0.0017
     36 C         144.5993  141.3052  161.1748 C.ar    1  UNL1        0.0293
     37 C         143.8988  140.0296  160.8113 C.ar    1  UNL1        0.1401
     38 F         144.6696  138.7447  160.7401 F       1  UNL1       -0.2042
     39 C         142.4276  140.0388  160.5191 C.ar    1  UNL1        0.0293
     40 C         141.6568  141.3237  160.5904 C.ar    1  UNL1       -0.0017
     41 C         140.7345  144.1821  162.2231 C.ar    1  UNL1       -0.0183
     42 C         139.2763  144.4881  162.0491 C.ar    1  UNL1       -0.0017
     43 C         138.4243  144.7861  163.2471 C.ar    1  UNL1        0.0293
     44 C         139.0304  144.7782  164.6191 C.ar    1  UNL1        0.1401
     45 F         138.1783  145.0762  165.8171 F       1  UNL1       -0.2042
     46 C         140.4885  144.4722  164.7932 C.ar    1  UNL1        0.0293
     47 C         141.3406  144.1742  163.5952 C.ar    1  UNL1       -0.0017
@<TRIPOS>BOND
     1    27    28    1
     2    28    13    1
     3    13    14   ar
     4    14    19    1
     5    19    20    1
     6    19    21    1
     7    19    22    1
     8    14    15   ar
     9    15    16   ar
    10    16     9    1
    11     9    10    2
    12     9    11   am
    13    11     8    1
    14     1     8    1
    15     1     2    1
    16     2     3    1
    17     3     4    1
    18     4     5   am
    19     5     6    2
    20     5    29    1
    21    29    30    1
    22    30    31    1
    23    31    32    1
    24    32    33    1
    25    33    34    1
    26    34    35   ar
    27    35    36   ar
    28    36    37   ar
    29    37    38    1
    30    37    39   ar
    31    39    40   ar
    32    33    41    1
    33    41    42   ar
    34    42    43   ar
    35    43    44   ar
    36    44    45    1
    37    44    46   ar
    38    46    47   ar
    39     4     7    1
    40    16    17   ar
    41    17    18   ar
    42    18    23    1
    43    23    24    1
    44    23    25    1
    45    23    26    1
    46    18    13   ar
    47     7     1    1
    48    40    34   ar
    49    47    41   ar
    50    11    12    1
@<TRIPOS>MOLECULE
*****
 47 50 0 0 0
SMALL
GASTEIGER

@<TRIPOS>ATOM
      1 C         138.1646  141.1909  159.4413 C.3     1  UNL1        0.0412
      2 C         138.1038  140.2287  158.2922 C.3     1  UNL1        0.0249
      3 C         138.5913  140.9406  157.0652 C.3     1  UNL1        0.0935
      4 N         138.9534  142.3429  157.4560 N.am    1  UNL1       -0.2795
      5 C         139.4857  143.4041  156.5392 C.2     1  UNL1        0.2256
      6 O         139.6992  143.1015  155.0857 O.2     1  UNL1       -0.2749
      7 C         138.6897  142.4975  158.9245 C.3     1  UNL1        0.0951
      8 C         137.7697  140.8979  160.8585 C.3     1  UNL1        0.0914
      9 C         138.5299  141.1176  163.3331 C.2     1  UNL1        0.2458
     10 O         137.1806  141.6611  163.6993 O.2     1  UNL1       -0.2701
     11 N         138.8244  140.7360  161.9127 N.am    1  UNL1       -0.3008
     12 H         139.7100  140.3792  161.6724 H       1  UNL1        0.1497
     13 C         141.6939  140.6317  166.4959 C.ar    1  UNL1        0.1306
     14 C         142.0242  140.3647  165.0573 C.ar    1  UNL1        0.0110
     15 C         140.9695  140.5267  164.0031 C.ar    1  UNL1        0.0032
     16 C         139.5845  140.9556  164.3874 C.ar    1  UNL1        0.0529
     17 C         139.2542  141.2227  165.8260 C.ar    1  UNL1        0.0032
     18 C         140.3089  141.0607  166.8802 C.ar    1  UNL1        0.0110
     19 C         143.4092  139.9357  164.6729 C.3     1  UNL1        0.0218
     20 C         142.9449  138.5120  164.5885 C.3     1  UNL1        0.0045
     21 C         143.8736  141.3595  164.7574 C.3     1  UNL1        0.0045
     22 C         144.7942  139.5068  164.2886 C.3     1  UNL1        0.0045
     23 C         139.9785  141.3278  168.3189 C.3     1  UNL1        0.0218
     24 C         139.3604  139.9656  168.4297 C.3     1  UNL1        0.0045
     25 C         140.5966  142.6899  168.2080 C.3     1  UNL1        0.0045
     26 C         139.6481  141.5947  169.7574 C.3     1  UNL1        0.0045
     27 C         142.9046  139.1574  168.2595 C.3     1  UNL1        0.2524
     28 O         142.7485  140.4698  167.5501 O.3     1  UNL1       -0.4721
     29 C         139.8045  144.7680  157.0760 C.3     1  UNL1        0.0853
     30 C         141.2228  145.1340  157.3995 C.3     1  UNL1        0.0096
     31 C         141.9429  144.4332  158.5131 C.3     1  UNL1        0.0012
     32 C         141.7591  144.8903  159.9298 C.3     1  UNL1        0.0087
     33 C         141.6225  143.8818  161.0317 C.3     1  UNL1        0.0446
     34 C         140.7431  144.1739  162.2112 C.ar    1  UNL1       -0.0183
     35 C         139.2834  144.4527  162.0075 C.ar    1  UNL1       -0.0017
     36 C         138.4039  144.7448  163.1870 C.ar    1  UNL1        0.0293
     37 C         138.9841  144.7582  164.5702 C.ar    1  UNL1        0.1401
     38 F         138.1046  145.0503  165.7497 F       1  UNL1       -0.2042
     39 C         140.4438  144.4794  164.7738 C.ar    1  UNL1        0.0293
     40 C         141.3233  144.1872  163.5943 C.ar    1  UNL1       -0.0017
     41 C         142.3655  142.5810  160.9541 C.ar    1  UNL1       -0.0183
     42 C         141.6429  141.3267  160.5610 C.ar    1  UNL1       -0.0017
     43 C         142.3859  140.0260  160.4834 C.ar    1  UNL1        0.0293
     44 C         143.8516  139.9795  160.7988 C.ar    1  UNL1        0.1401
     45 F         144.5946  138.6788  160.7212 F       1  UNL1       -0.2042
     46 C         144.5743  141.2338  161.1920 C.ar    1  UNL1        0.0293
     47 C         143.8313  142.5345  161.2696 C.ar    1  UNL1       -0.0017
@<TRIPOS>BOND
     1    27    28    1
     2    28    13    1
     3    13    14   ar
     4    14    19    1
     5    19    20    1
     6    19    21    1
     7    19    22    1
     8    14    15   ar
     9    15    16   ar
    10    16     9    1
    11     9    10    2
    12     9    11   am
    13    11     8    1
    14     1     8    1
    15     1     2    1
    16     2     3    1
    17     3     4    1
    18     4     5   am
    19     5     6    2
    20     5    29    1
    21    29    30    1
    22    30    31    1
    23    31    32    1
    24    32    33    1
    25    33    34    1
    26    34    35   ar
    27    35    36   ar
    28    36    37   ar
    29    37    38    1
    30    37    39   ar
    31    39    40   ar
    32    33    41    1
    33    41    42   ar
    34    42    43   ar
    35    43    44   ar
    36    44    45    1
    37    44    46   ar
    38    46    47   ar
    39     4     7    1
    40    16    17   ar
    41    17    18   ar
    42    18    23    1
    43    23    24    1
    44    23    25    1
    45    23    26    1
    46    18    13   ar
    47     7     1    1
    48    40    34   ar
    49    47    41   ar
    50    11    12    1
