@<TRIPOS>MOLECULE
*****
 36 40 0 0 0
SMALL
GASTEIGER

@<TRIPOS>ATOM
      1 N         140.5933  141.4363  161.5501 N.am    1  UNL1       -0.2794
      2 C         140.0675  140.0711  161.2188 C.2     1  UNL1        0.2495
      3 O         139.0507  139.4222  162.1106 O.2     1  UNL1       -0.2698
      4 H         141.2606  141.8621  160.9648 H       1  UNL1        0.1552
      5 N         138.1518  143.1725  161.3930 N.pl3   1  UNL1       -0.3560
      6 C         138.8817  143.0207  162.6946 C.ar    1  UNL1        0.0552
      7 C         138.3908  143.7370  163.9177 C.ar    1  UNL1        0.0153
      8 C         139.1208  143.5851  165.2193 C.ar    1  UNL1        0.0014
      9 C         140.3415  142.7171  165.2978 C.ar    1  UNL1        0.0018
     10 C         140.8323  142.0008  164.0748 C.ar    1  UNL1        0.0159
     11 C         140.1024  142.1526  162.7732 C.ar    1  UNL1        0.0636
     12 H         137.3505  143.7422  161.3415 H       1  UNL1        0.1424
     13 H         138.4739  142.7023  160.5903 H       1  UNL1        0.1424
     14 C         141.0714  142.5652  166.5995 C.ar    1  UNL1        0.0070
     15 C         140.5089  142.8386  167.9629 C.ar    1  UNL1        0.0075
     16 C         141.5818  142.5557  168.9722 C.ar    1  UNL1        0.0355
     17 S         142.8074  142.1075  168.2327 S.2     1  UNL1       -0.0859
     18 C         142.4920  142.1134  166.7662 C.ar    1  UNL1        0.0354
     19 C         140.5583  139.3547  159.9957 C.ar    1  UNL1        0.0537
     20 C         142.0304  139.1714  159.7739 C.ar    1  UNL1        0.0042
     21 C         142.5211  138.4549  158.5508 C.ar    1  UNL1       -0.0028
     22 C         141.5396  137.9219  157.5495 C.ar    1  UNL1       -0.0061
     23 C         140.0675  138.1052  157.7713 C.ar    1  UNL1       -0.0028
     24 C         139.5768  138.8216  158.9944 C.ar    1  UNL1        0.0042
     25 C         142.0304  137.2055  156.3264 C.3     1  UNL1        0.0991
     26 N         142.2055  135.7159  156.3494 N.3     1  UNL1       -0.2689
     27 C         143.1358  135.0852  157.3428 C.3     1  UNL1        0.0737
     28 C         143.3108  133.5956  157.3657 C.3     1  UNL1        0.0318
     29 C         142.5556  132.7367  156.3951 C.3     1  UNL1        0.0446
     30 C         141.8713  131.7546  155.4912 C.3     1  UNL1        0.0160
     31 C         142.3385  130.3786  155.8634 C.3     1  UNL1        0.0184
     32 C         143.3116  130.5104  156.9973 C.3     1  UNL1        0.0685
     33 N         143.4458  131.9678  157.3259 N.3     1  UNL1       -0.2995
     34 C         141.6254  133.3674  155.4017 C.3     1  UNL1        0.0318
     35 C         141.4503  134.8570  155.3788 C.3     1  UNL1        0.0737
     36 H         144.4142  132.2630  157.2015 H       1  UNL1        0.1232
@<TRIPOS>BOND
     1     5     6    1
     2     6     7   ar
     3     7     8   ar
     4     8     9   ar
     5     9    14    1
     6    14    15   ar
     7    15    16   ar
     8    16    17   ar
     9    17    18   ar
    10     9    10   ar
    11    10    11   ar
    12    11     1    1
    13     1     2   am
    14     2     3    2
    15     2    19    1
    16    19    20   ar
    17    20    21   ar
    18    21    22   ar
    19    22    25    1
    20    25    26    1
    21    26    27    1
    22    27    28    1
    23    28    29    1
    24    29    30    1
    25    30    31    1
    26    31    32    1
    27    32    33    1
    28    29    34    1
    29    34    35    1
    30    22    23   ar
    31    23    24   ar
    32    11     6   ar
    33    24    19   ar
    34    18    14   ar
    35    35    26    1
    36    33    29    1
    37     5    12    1
    38     5    13    1
    39     1     4    1
    40    33    36    1
@<TRIPOS>MOLECULE
*****
 36 40 0 0 0
SMALL
GASTEIGER

@<TRIPOS>ATOM
      1 N         141.9448  138.1016  158.8923 N.am    1  UNL1       -0.2794
      2 C         140.4603  138.3166  158.8946 C.2     1  UNL1        0.2495
      3 O         139.6409  137.9038  157.7080 O.2     1  UNL1       -0.2698
      4 H         142.4826  138.3726  159.6712 H       1  UNL1        0.1552
      5 N         142.6825  139.7866  156.5224 N.pl3   1  UNL1       -0.3560
      6 C         142.9787  138.3161  156.5185 C.ar    1  UNL1        0.0552
      7 C         143.6437  137.6882  155.3297 C.ar    1  UNL1        0.0153
      8 C         143.9400  136.2177  155.3259 C.ar    1  UNL1        0.0014
      9 C         143.5712  135.3752  156.5108 C.ar    1  UNL1        0.0018
     10 C         142.9061  136.0032  157.6996 C.ar    1  UNL1        0.0159
     11 C         142.6099  137.4736  157.7035 C.ar    1  UNL1        0.0636
     12 H         142.9245  140.3395  155.7446 H       1  UNL1        0.1424
     13 H         142.2460  140.1987  157.3027 H       1  UNL1        0.1424
     14 C         143.8674  133.9047  156.5070 C.ar    1  UNL1        0.0070
     15 C         143.6332  132.9611  155.3647 C.ar    1  UNL1        0.0075
     16 C         144.0708  131.5929  155.7965 C.ar    1  UNL1        0.0355
     17 S         144.5755  131.6909  157.2056 S.2     1  UNL1       -0.0859
     18 C         144.4497  133.1197  157.6448 C.ar    1  UNL1        0.0354
     19 C         139.7951  138.9446  160.0834 C.ar    1  UNL1        0.0537
     20 C         139.0068  138.0964  161.0368 C.ar    1  UNL1        0.0042
     21 C         138.3417  138.7244  162.2256 C.ar    1  UNL1       -0.0028
     22 C         138.4649  140.2007  162.4609 C.ar    1  UNL1       -0.0061
     23 C         139.2532  141.0490  161.5075 C.ar    1  UNL1       -0.0028
     24 C         139.9184  140.4209  160.3188 C.ar    1  UNL1        0.0042
     25 C         137.7998  140.8287  163.6497 C.3     1  UNL1        0.0991
     26 N         138.4801  140.8103  164.9864 N.3     1  UNL1       -0.2689
     27 C         138.2460  139.6694  165.9317 C.3     1  UNL1        0.0737
     28 C         138.9264  139.6511  167.2683 C.3     1  UNL1        0.0318
     29 C         139.8409  140.7738  167.6598 C.3     1  UNL1        0.0446
     30 C         140.7774  141.8203  168.1868 C.3     1  UNL1        0.0160
     31 C         141.2195  141.3990  169.5569 C.3     1  UNL1        0.0184
     32 C         140.5563  140.0921  169.8766 C.3     1  UNL1        0.0685
     33 N         139.7043  139.7057  168.7041 N.3     1  UNL1       -0.2995
     34 C         140.0751  141.9147  166.7146 C.3     1  UNL1        0.0318
     35 C         139.3947  141.9329  165.3779 C.3     1  UNL1        0.0737
     36 H         138.7297  139.6286  168.9949 H       1  UNL1        0.1232
@<TRIPOS>BOND
     1     5     6    1
     2     6     7   ar
     3     7     8   ar
     4     8     9   ar
     5     9    14    1
     6    14    15   ar
     7    15    16   ar
     8    16    17   ar
     9    17    18   ar
    10     9    10   ar
    11    10    11   ar
    12    11     1    1
    13     1     2   am
    14     2     3    2
    15     2    19    1
    16    19    20   ar
    17    20    21   ar
    18    21    22   ar
    19    22    25    1
    20    25    26    1
    21    26    27    1
    22    27    28    1
    23    28    29    1
    24    29    30    1
    25    30    31    1
    26    31    32    1
    27    32    33    1
    28    29    34    1
    29    34    35    1
    30    22    23   ar
    31    23    24   ar
    32    11     6   ar
    33    24    19   ar
    34    18    14   ar
    35    35    26    1
    36    33    29    1
    37     5    12    1
    38     5    13    1
    39     1     4    1
    40    33    36    1
@<TRIPOS>MOLECULE
*****
 36 40 0 0 0
SMALL
GASTEIGER

@<TRIPOS>ATOM
      1 N         143.1123  137.8714  159.5226 N.am    1  UNL1       -0.2794
      2 C         142.0506  138.1857  160.5345 C.2     1  UNL1        0.2495
      3 O         140.6346  138.4075  160.0918 O.2     1  UNL1       -0.2698
      4 H         144.0416  137.7258  159.8131 H       1  UNL1        0.1552
      5 N         142.4330  140.3551  157.9832 N.pl3   1  UNL1       -0.3560
      6 C         142.4184  139.0208  157.2983 C.ar    1  UNL1        0.0552
      7 C         142.0642  138.9283  155.8437 C.ar    1  UNL1        0.0153
      8 C         142.0496  137.5938  155.1587 C.ar    1  UNL1        0.0014
      9 C         142.3892  136.3520  155.9284 C.ar    1  UNL1        0.0018
     10 C         142.7435  136.4445  157.3830 C.ar    1  UNL1        0.0159
     11 C         142.7581  137.7789  158.0680 C.ar    1  UNL1        0.0636
     12 H         142.2101  141.1702  157.4781 H       1  UNL1        0.1424
     13 H         142.6655  140.4159  158.9380 H       1  UNL1        0.1424
     14 C         142.3747  135.0175  155.2435 C.ar    1  UNL1        0.0070
     15 C         142.1800  134.7824  153.7748 C.ar    1  UNL1        0.0075
     16 C         142.2372  133.3035  153.5306 C.ar    1  UNL1        0.0355
     17 S         142.4673  132.6246  154.8482 S.2     1  UNL1       -0.0859
     18 C         142.5522  133.6840  155.9069 C.ar    1  UNL1        0.0354
     19 C         142.4047  138.2782  161.9892 C.ar    1  UNL1        0.0537
     20 C         141.5045  137.6654  163.0208 C.ar    1  UNL1        0.0042
     21 C         141.8587  137.7580  164.4754 C.ar    1  UNL1       -0.0028
     22 C         143.1131  138.4634  164.8985 C.ar    1  UNL1       -0.0061
     23 C         144.0133  139.0762  163.8669 C.ar    1  UNL1       -0.0028
     24 C         143.6591  138.9836  162.4123 C.ar    1  UNL1        0.0042
     25 C         143.4672  138.5559  166.3531 C.3     1  UNL1        0.0991
     26 N         142.7685  139.5494  167.2334 N.3     1  UNL1       -0.2689
     27 C         142.5007  139.2190  168.6718 C.3     1  UNL1        0.0737
     28 C         141.8020  140.2124  169.5521 C.3     1  UNL1        0.0318
     29 C         141.3709  141.5363  168.9938 C.3     1  UNL1        0.0446
     30 C         140.8839  142.8929  168.5786 C.3     1  UNL1        0.0160
     31 C         140.2485  143.5425  169.7720 C.3     1  UNL1        0.0184
     32 C         140.3428  142.5875  170.9248 C.3     1  UNL1        0.0685
     33 N         141.0365  141.3475  170.4438 N.3     1  UNL1       -0.2995
     34 C         141.6387  141.8667  167.5554 C.3     1  UNL1        0.0318
     35 C         142.3374  140.8732  166.6752 C.3     1  UNL1        0.0737
     36 H         140.4214  140.5415  170.5551 H       1  UNL1        0.1232
@<TRIPOS>BOND
     1     5     6    1
     2     6     7   ar
     3     7     8   ar
     4     8     9   ar
     5     9    14    1
     6    14    15   ar
     7    15    16   ar
     8    16    17   ar
     9    17    18   ar
    10     9    10   ar
    11    10    11   ar
    12    11     1    1
    13     1     2   am
    14     2     3    2
    15     2    19    1
    16    19    20   ar
    17    20    21   ar
    18    21    22   ar
    19    22    25    1
    20    25    26    1
    21    26    27    1
    22    27    28    1
    23    28    29    1
    24    29    30    1
    25    30    31    1
    26    31    32    1
    27    32    33    1
    28    29    34    1
    29    34    35    1
    30    22    23   ar
    31    23    24   ar
    32    11     6   ar
    33    24    19   ar
    34    18    14   ar
    35    35    26    1
    36    33    29    1
    37     5    12    1
    38     5    13    1
    39     1     4    1
    40    33    36    1
@<TRIPOS>MOLECULE
*****
 36 40 0 0 0
SMALL
GASTEIGER

@<TRIPOS>ATOM
      1 N         141.3381  144.3839  161.5272 N.am    1  UNL1       -0.2794
      2 C         141.7364  143.7135  160.2459 C.2     1  UNL1        0.2495
      3 O         142.5918  142.4817  160.2783 O.2     1  UNL1       -0.2698
      4 H         140.7766  145.1923  161.5060 H       1  UNL1        0.1552
      5 N         143.9889  145.2037  162.6679 N.pl3   1  UNL1       -0.3560
      6 C         143.1205  144.2325  163.4113 C.ar    1  UNL1        0.0552
      7 C         143.5776  143.6711  164.7251 C.ar    1  UNL1        0.0153
      8 C         142.7092  142.6998  165.4685 C.ar    1  UNL1        0.0014
      9 C         141.3839  142.2899  164.8981 C.ar    1  UNL1        0.0018
     10 C         140.9268  142.8513  163.5844 C.ar    1  UNL1        0.0159
     11 C         141.7951  143.8226  162.8410 C.ar    1  UNL1        0.0636
     12 H         144.8588  145.4728  163.0423 H       1  UNL1        0.1424
     13 H         143.6889  145.5722  161.8057 H       1  UNL1        0.1424
     14 C         140.5155  141.3186  165.6415 C.ar    1  UNL1        0.0070
     15 C         140.5775  141.0267  167.1115 C.ar    1  UNL1        0.0075
     16 C         139.5330  139.9964  167.4239 C.ar    1  UNL1        0.0355
     17 S         138.8254  139.6517  166.1470 S.2     1  UNL1       -0.0859
     18 C         139.4326  140.4689  165.0454 C.ar    1  UNL1        0.0354
     19 C         141.2794  144.2748  158.9320 C.ar    1  UNL1        0.0537
     20 C         140.0130  143.7747  158.3025 C.ar    1  UNL1        0.0042
     21 C         139.5561  144.3360  156.9887 C.ar    1  UNL1       -0.0028
     22 C         140.3655  145.3974  156.3044 C.ar    1  UNL1       -0.0061
     23 C         141.6319  145.8975  156.9339 C.ar    1  UNL1       -0.0028
     24 C         142.0888  145.3362  158.2477 C.ar    1  UNL1        0.0042
     25 C         139.9086  145.9587  154.9906 C.3     1  UNL1        0.0991
     26 N         139.6800  147.4340  154.8441 N.3     1  UNL1       -0.2689
     27 C         140.2637  148.1710  153.6753 C.3     1  UNL1        0.0737
     28 C         140.0351  149.6462  153.5288 C.3     1  UNL1        0.0318
     29 C         139.2227  150.3844  154.5511 C.3     1  UNL1        0.0446
     30 C         138.4362  151.2521  155.4885 C.3     1  UNL1        0.0160
     31 C         138.4679  152.6549  154.9582 C.3     1  UNL1        0.0184
     32 C         139.2739  152.6542  153.6932 C.3     1  UNL1        0.0685
     33 N         139.7404  151.2509  153.4416 N.3     1  UNL1       -0.2995
     34 C         138.6390  149.6474  155.7199 C.3     1  UNL1        0.0318
     35 C         138.8676  148.1722  155.8664 C.3     1  UNL1        0.0737
     36 H         140.7599  151.2224  153.4271 H       1  UNL1        0.1232
@<TRIPOS>BOND
     1     5     6    1
     2     6     7   ar
     3     7     8   ar
     4     8     9   ar
     5     9    14    1
     6    14    15   ar
     7    15    16   ar
     8    16    17   ar
     9    17    18   ar
    10     9    10   ar
    11    10    11   ar
    12    11     1    1
    13     1     2   am
    14     2     3    2
    15     2    19    1
    16    19    20   ar
    17    20    21   ar
    18    21    22   ar
    19    22    25    1
    20    25    26    1
    21    26    27    1
    22    27    28    1
    23    28    29    1
    24    29    30    1
    25    30    31    1
    26    31    32    1
    27    32    33    1
    28    29    34    1
    29    34    35    1
    30    22    23   ar
    31    23    24   ar
    32    11     6   ar
    33    24    19   ar
    34    18    14   ar
    35    35    26    1
    36    33    29    1
    37     5    12    1
    38     5    13    1
    39     1     4    1
    40    33    36    1
@<TRIPOS>MOLECULE
*****
 36 40 0 0 0
SMALL
GASTEIGER

@<TRIPOS>ATOM
      1 N         143.4809  140.4220  162.1300 N.am    1  UNL1       -0.2794
      2 C         142.3355  140.6390  161.1861 C.2     1  UNL1        0.2495
      3 O         141.2874  141.6645  161.5018 O.2     1  UNL1       -0.2698
      4 H         144.1688  139.7489  161.9228 H       1  UNL1        0.1552
      5 N         145.2387  142.8514  162.2212 N.pl3   1  UNL1       -0.3560
      6 C         144.4570  142.4453  163.4353 C.ar    1  UNL1        0.0552
      7 C         144.5542  143.2538  164.6949 C.ar    1  UNL1        0.0153
      8 C         143.7725  142.8476  165.9090 C.ar    1  UNL1        0.0014
      9 C         142.8936  141.6330  165.8634 C.ar    1  UNL1        0.0018
     10 C         142.7964  140.8245  164.6038 C.ar    1  UNL1        0.0159
     11 C         143.5781  141.2306  163.3897 C.ar    1  UNL1        0.0636
     12 H         145.8155  143.6486  162.2511 H       1  UNL1        0.1424
     13 H         145.1749  142.3207  161.3944 H       1  UNL1        0.1424
     14 C         142.1119  141.2268  167.0775 C.ar    1  UNL1        0.0070
     15 C         140.8291  141.8459  167.5480 C.ar    1  UNL1        0.0075
     16 C         140.4001  141.1320  168.7955 C.ar    1  UNL1        0.0355
     17 S         141.4177  140.0717  169.0960 S.2     1  UNL1       -0.0859
     18 C         142.4757  140.1303  168.0343 C.ar    1  UNL1        0.0354
     19 C         142.2382  139.8305  159.9263 C.ar    1  UNL1        0.0537
     20 C         143.3539  139.8656  158.9244 C.ar    1  UNL1        0.0042
     21 C         143.2565  139.0570  157.6648 C.ar    1  UNL1       -0.0028
     22 C         142.0433  138.2134  157.4070 C.ar    1  UNL1       -0.0061
     23 C         140.9276  138.1782  158.4089 C.ar    1  UNL1       -0.0028
     24 C         141.0250  138.9868  159.6686 C.ar    1  UNL1        0.0042
     25 C         141.9460  137.4049  156.1474 C.3     1  UNL1        0.0991
     26 N         142.1223  135.9160  156.1963 N.3     1  UNL1       -0.2689
     27 C         143.0643  135.3045  157.1905 C.3     1  UNL1        0.0737
     28 C         143.2405  133.8156  157.2393 C.3     1  UNL1        0.0318
     29 C         142.4747  132.9384  156.2939 C.3     1  UNL1        0.0446
     30 C         141.7806  131.9392  155.4165 C.3     1  UNL1        0.0160
     31 C         142.2529  130.5707  155.8090 C.3     1  UNL1        0.0184
     32 C         143.2389  130.7241  156.9290 C.3     1  UNL1        0.0685
     33 N         143.3760  132.1874  157.2286 N.3     1  UNL1       -0.2995
     34 C         141.5327  133.5499  155.2996 C.3     1  UNL1        0.0318
     35 C         141.3565  135.0387  155.2508 C.3     1  UNL1        0.0737
     36 H         144.3427  132.4806  157.0875 H       1  UNL1        0.1232
@<TRIPOS>BOND
     1     5     6    1
     2     6     7   ar
     3     7     8   ar
     4     8     9   ar
     5     9    14    1
     6    14    15   ar
     7    15    16   ar
     8    16    17   ar
     9    17    18   ar
    10     9    10   ar
    11    10    11   ar
    12    11     1    1
    13     1     2   am
    14     2     3    2
    15     2    19    1
    16    19    20   ar
    17    20    21   ar
    18    21    22   ar
    19    22    25    1
    20    25    26    1
    21    26    27    1
    22    27    28    1
    23    28    29    1
    24    29    30    1
    25    30    31    1
    26    31    32    1
    27    32    33    1
    28    29    34    1
    29    34    35    1
    30    22    23   ar
    31    23    24   ar
    32    11     6   ar
    33    24    19   ar
    34    18    14   ar
    35    35    26    1
    36    33    29    1
    37     5    12    1
    38     5    13    1
    39     1     4    1
    40    33    36    1
@<TRIPOS>MOLECULE
*****
 36 40 0 0 0
SMALL
GASTEIGER

@<TRIPOS>ATOM
      1 N         139.7639  138.5697  161.4979 N.am    1  UNL1       -0.2794
      2 C         140.4900  139.2729  160.3896 C.2     1  UNL1        0.2495
      3 O         140.8169  140.7315  160.5141 O.2     1  UNL1       -0.2698
      4 H         139.5493  137.6124  161.4161 H       1  UNL1        0.1552
      5 N         137.2091  140.1419  161.5321 N.pl3   1  UNL1       -0.3560
      6 C         138.0872  140.1113  162.7478 C.ar    1  UNL1        0.0552
      7 C         137.6880  140.8668  163.9806 C.ar    1  UNL1        0.0153
      8 C         138.5662  140.8362  165.1963 C.ar    1  UNL1        0.0014
      9 C         139.8435  140.0501  165.1791 C.ar    1  UNL1        0.0018
     10 C         140.2428  139.2946  163.9463 C.ar    1  UNL1        0.0159
     11 C         139.3646  139.3252  162.7306 C.ar    1  UNL1        0.0636
     12 H         136.3707  140.6579  161.5433 H       1  UNL1        0.1424
     13 H         137.4711  139.6461  160.7230 H       1  UNL1        0.1424
     14 C         140.7218  140.0195  166.3948 C.ar    1  UNL1        0.0070
     15 C         140.4368  140.6911  167.7055 C.ar    1  UNL1        0.0075
     16 C         141.5780  140.3986  168.6340 C.ar    1  UNL1        0.0355
     17 S         142.5683  139.5463  167.8971 S.2     1  UNL1       -0.0859
     18 C         142.0391  139.3120  166.5132 C.ar    1  UNL1        0.0354
     19 C         140.8893  138.5174  159.1567 C.ar    1  UNL1        0.0537
     20 C         142.3097  138.0692  158.9787 C.ar    1  UNL1        0.0042
     21 C         142.7089  137.3138  157.7458 C.ar    1  UNL1       -0.0028
     22 C         141.6877  137.0066  156.6909 C.ar    1  UNL1       -0.0061
     23 C         140.2673  137.4548  156.8689 C.ar    1  UNL1       -0.0028
     24 C         139.8681  138.2102  158.1018 C.ar    1  UNL1        0.0042
     25 C         142.0869  136.2512  155.4581 C.3     1  UNL1        0.0991
     26 N         142.4138  134.7899  155.5468 N.3     1  UNL1       -0.2689
     27 C         141.3467  133.7660  155.2957 C.3     1  UNL1        0.0737
     28 C         141.6736  132.3048  155.3845 C.3     1  UNL1        0.0318
     29 C         143.0676  131.8674  155.7243 C.3     1  UNL1        0.0446
     30 C         144.4093  131.2824  156.0524 C.3     1  UNL1        0.0160
     31 C         144.2811  129.7881  156.0314 C.3     1  UNL1        0.0184
     32 C         142.8601  129.4495  155.6902 C.3     1  UNL1        0.0685
     33 N         142.1102  130.7346  155.5004 N.3     1  UNL1       -0.2995
     34 C         144.1347  132.8912  155.9753 C.3     1  UNL1        0.0318
     35 C         143.8078  134.3525  155.8866 C.3     1  UNL1        0.0737
     36 H         141.3443  130.7908  156.1718 H       1  UNL1        0.1232
@<TRIPOS>BOND
     1     5     6    1
     2     6     7   ar
     3     7     8   ar
     4     8     9   ar
     5     9    14    1
     6    14    15   ar
     7    15    16   ar
     8    16    17   ar
     9    17    18   ar
    10     9    10   ar
    11    10    11   ar
    12    11     1    1
    13     1     2   am
    14     2     3    2
    15     2    19    1
    16    19    20   ar
    17    20    21   ar
    18    21    22   ar
    19    22    25    1
    20    25    26    1
    21    26    27    1
    22    27    28    1
    23    28    29    1
    24    29    30    1
    25    30    31    1
    26    31    32    1
    27    32    33    1
    28    29    34    1
    29    34    35    1
    30    22    23   ar
    31    23    24   ar
    32    11     6   ar
    33    24    19   ar
    34    18    14   ar
    35    35    26    1
    36    33    29    1
    37     5    12    1
    38     5    13    1
    39     1     4    1
    40    33    36    1
@<TRIPOS>MOLECULE
*****
 36 40 0 0 0
SMALL
GASTEIGER

@<TRIPOS>ATOM
      1 N         140.2336  138.0380  155.9379 N.am    1  UNL1       -0.2794
      2 C         139.4294  138.3377  154.7077 C.2     1  UNL1        0.2495
      3 O         139.9081  137.8686  153.3658 O.2     1  UNL1       -0.2698
      4 H         139.9194  138.3459  156.8186 H       1  UNL1        0.1552
      5 N         142.7966  139.4761  155.3353 N.pl3   1  UNL1       -0.3560
      6 C         142.7982  137.9881  155.5248 C.ar    1  UNL1        0.0552
      7 C         144.0813  137.2192  155.4131 C.ar    1  UNL1        0.0153
      8 C         144.0828  135.7312  155.6026 C.ar    1  UNL1        0.0014
      9 C         142.8013  135.0122  155.9039 C.ar    1  UNL1        0.0018
     10 C         141.5183  135.7811  156.0156 C.ar    1  UNL1        0.0159
     11 C         141.5167  137.2691  155.8261 C.ar    1  UNL1        0.0636
     12 H         143.6377  139.9480  155.1376 H       1  UNL1        0.1424
     13 H         141.9545  139.9808  155.4087 H       1  UNL1        0.1424
     14 C         142.8028  133.5241  156.0934 C.ar    1  UNL1        0.0070
     15 C         141.9035  132.5458  155.3976 C.ar    1  UNL1        0.0075
     16 C         142.2487  131.1703  155.8861 C.ar    1  UNL1        0.0355
     17 S         143.3614  131.2984  156.8839 S.2     1  UNL1       -0.0859
     18 C         143.7039  132.7532  157.0120 C.ar    1  UNL1        0.0354
     19 C         138.1462  139.1067  154.8194 C.ar    1  UNL1        0.0537
     20 C         136.9630  138.7168  153.9839 C.ar    1  UNL1        0.0042
     21 C         135.6800  139.4858  154.0956 C.ar    1  UNL1       -0.0028
     22 C         135.5802  140.6446  155.0428 C.ar    1  UNL1       -0.0061
     23 C         136.7634  141.0345  155.8783 C.ar    1  UNL1       -0.0028
     24 C         138.0464  140.2655  155.7665 C.ar    1  UNL1        0.0042
     25 C         134.2971  141.4136  155.1545 C.3     1  UNL1        0.0991
     26 N         133.1215  140.8116  155.8655 N.3     1  UNL1       -0.2689
     27 C         133.3393  139.8035  156.9546 C.3     1  UNL1        0.0737
     28 C         132.1636  139.2017  157.6657 C.3     1  UNL1        0.0318
     29 C         130.7701  139.6080  157.2876 C.3     1  UNL1        0.0446
     30 C         129.3264  139.9149  157.0202 C.3     1  UNL1        0.0160
     31 C         128.4958  139.0901  157.9582 C.3     1  UNL1        0.0184
     32 C         129.4261  138.2735  158.8053 C.3     1  UNL1        0.0685
     33 N         130.8317  138.5935  158.3908 N.3     1  UNL1       -0.2995
     34 C         130.5522  140.6161  156.1985 C.3     1  UNL1        0.0318
     35 C         131.7279  141.2180  155.4875 C.3     1  UNL1        0.0737
     36 H         131.2955  137.7481  158.0582 H       1  UNL1        0.1232
@<TRIPOS>BOND
     1     5     6    1
     2     6     7   ar
     3     7     8   ar
     4     8     9   ar
     5     9    14    1
     6    14    15   ar
     7    15    16   ar
     8    16    17   ar
     9    17    18   ar
    10     9    10   ar
    11    10    11   ar
    12    11     1    1
    13     1     2   am
    14     2     3    2
    15     2    19    1
    16    19    20   ar
    17    20    21   ar
    18    21    22   ar
    19    22    25    1
    20    25    26    1
    21    26    27    1
    22    27    28    1
    23    28    29    1
    24    29    30    1
    25    30    31    1
    26    31    32    1
    27    32    33    1
    28    29    34    1
    29    34    35    1
    30    22    23   ar
    31    23    24   ar
    32    11     6   ar
    33    24    19   ar
    34    18    14   ar
    35    35    26    1
    36    33    29    1
    37     5    12    1
    38     5    13    1
    39     1     4    1
    40    33    36    1
@<TRIPOS>MOLECULE
*****
 36 40 0 0 0
SMALL
GASTEIGER

@<TRIPOS>ATOM
      1 N         140.1714  141.3815  163.6749 N.am    1  UNL1       -0.2794
      2 C         141.1937  140.6946  162.8187 C.2     1  UNL1        0.2495
      3 O         141.7310  139.3535  163.2221 O.2     1  UNL1       -0.2698
      4 H         139.8188  142.2617  163.4102 H       1  UNL1        0.1552
      5 N         137.8844  139.4426  163.5735 N.pl3   1  UNL1       -0.3560
      6 C         138.5429  139.7578  164.8838 C.ar    1  UNL1        0.0552
      7 C         138.0579  139.1035  166.1435 C.ar    1  UNL1        0.0153
      8 C         138.7165  139.4187  167.4538 C.ar    1  UNL1        0.0014
      9 C         139.8599  140.3881  167.5045 C.ar    1  UNL1        0.0018
     10 C         140.3449  141.0424  166.2449 C.ar    1  UNL1        0.0159
     11 C         139.6864  140.7272  164.9345 C.ar    1  UNL1        0.0636
     12 H         137.1339  138.8063  163.5402 H       1  UNL1        0.1424
     13 H         138.2027  139.8720  162.7467 H       1  UNL1        0.1424
     14 C         140.5185  140.7034  168.8149 C.ar    1  UNL1        0.0070
     15 C         139.8291  141.1998  170.0512 C.ar    1  UNL1        0.0075
     16 C         140.8665  141.3808  171.1194 C.ar    1  UNL1        0.0355
     17 S         142.1970  140.9962  170.5433 S.2     1  UNL1       -0.0859
     18 C         141.9819  140.5775  169.1190 C.ar    1  UNL1        0.0354
     19 C         141.6788  141.3488  161.5590 C.ar    1  UNL1        0.0537
     20 C         142.7546  142.3922  161.6219 C.ar    1  UNL1        0.0042
     21 C         143.2396  143.0463  160.3622 C.ar    1  UNL1       -0.0028
     22 C         142.6488  142.6570  159.0396 C.ar    1  UNL1       -0.0061
     23 C         141.5730  141.6136  158.9766 C.ar    1  UNL1       -0.0028
     24 C         141.0880  140.9595  160.2363 C.ar    1  UNL1        0.0042
     25 C         143.1339  143.3112  157.7799 C.3     1  UNL1        0.0991
     26 N         142.3023  144.3681  157.1155 N.3     1  UNL1       -0.2689
     27 C         141.2801  145.1270  157.9086 C.3     1  UNL1        0.0737
     28 C         140.4486  146.1839  157.2441 C.3     1  UNL1        0.0318
     29 C         140.6393  146.4819  155.7864 C.3     1  UNL1        0.0446
     30 C         140.7172  146.8879  154.3445 C.3     1  UNL1        0.0160
     31 C         139.7100  147.9753  154.1142 C.3     1  UNL1        0.0184
     32 C         139.0096  148.2413  155.4137 C.3     1  UNL1        0.0685
     33 N         139.5840  147.3184  156.4472 N.3     1  UNL1       -0.2995
     34 C         141.6616  145.7231  154.9933 C.3     1  UNL1        0.0318
     35 C         142.4931  144.6662  155.6578 C.3     1  UNL1        0.0737
     36 H         138.8496  146.7172  156.8209 H       1  UNL1        0.1232
@<TRIPOS>BOND
     1     5     6    1
     2     6     7   ar
     3     7     8   ar
     4     8     9   ar
     5     9    14    1
     6    14    15   ar
     7    15    16   ar
     8    16    17   ar
     9    17    18   ar
    10     9    10   ar
    11    10    11   ar
    12    11     1    1
    13     1     2   am
    14     2     3    2
    15     2    19    1
    16    19    20   ar
    17    20    21   ar
    18    21    22   ar
    19    22    25    1
    20    25    26    1
    21    26    27    1
    22    27    28    1
    23    28    29    1
    24    29    30    1
    25    30    31    1
    26    31    32    1
    27    32    33    1
    28    29    34    1
    29    34    35    1
    30    22    23   ar
    31    23    24   ar
    32    11     6   ar
    33    24    19   ar
    34    18    14   ar
    35    35    26    1
    36    33    29    1
    37     5    12    1
    38     5    13    1
    39     1     4    1
    40    33    36    1
@<TRIPOS>MOLECULE
*****
 36 40 0 0 0
SMALL
GASTEIGER

@<TRIPOS>ATOM
      1 N         140.7101  142.9756  161.7313 N.am    1  UNL1       -0.2794
      2 C         141.9153  143.6245  161.1179 C.2     1  UNL1        0.2495
      3 O         142.6846  144.6569  161.8876 O.2     1  UNL1       -0.2698
      4 H         140.2052  142.2980  161.2262 H       1  UNL1        0.1552
      5 N         138.5780  145.0517  162.1105 N.pl3   1  UNL1       -0.3560
      6 C         139.2081  144.3971  163.3040 C.ar    1  UNL1        0.0552
      7 C         138.7721  144.7806  164.6870 C.ar    1  UNL1        0.0153
      8 C         139.4023  144.1259  165.8805 C.ar    1  UNL1        0.0014
      9 C         140.4683  143.0879  165.6909 C.ar    1  UNL1        0.0018
     10 C         140.9042  142.7044  164.3079 C.ar    1  UNL1        0.0159
     11 C         140.2741  143.3590  163.1144 C.ar    1  UNL1        0.0636
     12 H         137.8783  145.7331  162.2349 H       1  UNL1        0.1424
     13 H         138.8641  144.8001  161.2027 H       1  UNL1        0.1424
     14 C         141.0984  142.4332  166.8845 C.ar    1  UNL1        0.0070
     15 C         140.3789  141.9582  168.1119 C.ar    1  UNL1        0.0075
     16 C         141.3944  141.3700  169.0461 C.ar    1  UNL1        0.0355
     17 S         142.7416  141.4815  168.3960 S.2     1  UNL1       -0.0859
     18 C         142.5587  142.1387  167.0600 C.ar    1  UNL1        0.0354
     19 C         142.3514  143.2411  159.7348 C.ar    1  UNL1        0.0537
     20 C         142.3275  144.2576  158.6320 C.ar    1  UNL1        0.0042
     21 C         142.7635  143.8741  157.2490 C.ar    1  UNL1       -0.0028
     22 C         143.2236  142.4741  156.9688 C.ar    1  UNL1       -0.0061
     23 C         143.2475  141.4576  158.0716 C.ar    1  UNL1       -0.0028
     24 C         142.8114  141.8411  159.4546 C.ar    1  UNL1        0.0042
     25 C         143.6596  142.0907  155.5858 C.3     1  UNL1        0.0991
     26 N         145.1206  141.9919  155.2603 N.3     1  UNL1       -0.2689
     27 C         145.5599  141.7632  153.8445 C.3     1  UNL1        0.0737
     28 C         147.0209  141.6644  153.5192 C.3     1  UNL1        0.0318
     29 C         148.0425  141.7942  154.6097 C.3     1  UNL1        0.0446
     30 C         149.1733  141.9036  155.5892 C.3     1  UNL1        0.0160
     31 C         150.4588  141.7456  154.8326 C.3     1  UNL1        0.0184
     32 C         150.1225  141.5386  153.3855 C.3     1  UNL1        0.0685
     33 N         148.6292  141.5687  153.2477 N.3     1  UNL1       -0.2995
     34 C         147.6032  142.0229  156.0256 C.3     1  UNL1        0.0318
     35 C         146.1423  142.1217  156.3509 C.3     1  UNL1        0.0737
     36 H         148.2984  140.6803  152.8711 H       1  UNL1        0.1232
@<TRIPOS>BOND
     1     5     6    1
     2     6     7   ar
     3     7     8   ar
     4     8     9   ar
     5     9    14    1
     6    14    15   ar
     7    15    16   ar
     8    16    17   ar
     9    17    18   ar
    10     9    10   ar
    11    10    11   ar
    12    11     1    1
    13     1     2   am
    14     2     3    2
    15     2    19    1
    16    19    20   ar
    17    20    21   ar
    18    21    22   ar
    19    22    25    1
    20    25    26    1
    21    26    27    1
    22    27    28    1
    23    28    29    1
    24    29    30    1
    25    30    31    1
    26    31    32    1
    27    32    33    1
    28    29    34    1
    29    34    35    1
    30    22    23   ar
    31    23    24   ar
    32    11     6   ar
    33    24    19   ar
    34    18    14   ar
    35    35    26    1
    36    33    29    1
    37     5    12    1
    38     5    13    1
    39     1     4    1
    40    33    36    1
