@<TRIPOS>MOLECULE
*****
 33 37 0 0 0
SMALL
GASTEIGER

@<TRIPOS>ATOM
      1 C         140.5851  145.1496  162.9893 C.3     1  UNL1        0.0719
      2 C         139.9199  144.1886  162.0490 C.ar    1  UNL1        0.1229
      3 N         140.3607  144.1137  160.6172 N.ar    1  UNL1       -0.2306
      4 C         139.6955  143.1527  159.6769 C.ar    1  UNL1        0.1065
      5 C         140.1363  143.0778  158.2451 C.ar    1  UNL1        0.1213
      6 N         139.4711  142.1169  157.3049 N.ar    1  UNL1       -0.2082
      7 C         138.3650  141.2308  157.7965 C.ar    1  UNL1        0.2300
      8 C         137.9242  141.3057  159.2283 C.ar    1  UNL1        0.0644
      9 C         138.5895  142.2667  160.1685 C.ar    1  UNL1        0.0800
     10 C         138.1487  142.3416  161.6004 C.ar    1  UNL1        0.2633
     11 O         137.0427  141.4556  162.0920 O.2     1  UNL1       -0.2669
     12 N         138.8139  143.3026  162.5406 N.ar    1  UNL1       -0.2840
     13 O         137.6998  140.2698  156.8563 O.3     1  UNL1       -0.4346
     14 C         136.7377  140.7762  155.8229 C.ar    1  UNL1        0.1646
     15 C         137.2515  141.4642  154.5930 C.ar    1  UNL1        0.0391
     16 C         136.2893  141.9706  153.5596 C.ar    1  UNL1        0.0032
     17 C         134.8134  141.7890  153.7562 C.ar    1  UNL1        0.0017
     18 C         134.2996  141.1010  154.9861 C.ar    1  UNL1        0.0207
     19 C         132.8237  140.9194  155.1826 C.ar    1  UNL1        0.0032
     20 C         132.3099  140.2313  156.4125 C.ar    1  UNL1        0.0207
     21 C         133.2720  139.7250  157.4459 C.ar    1  UNL1        0.0989
     22 N         134.7479  139.9066  157.2493 N.ar    1  UNL1       -0.2408
     23 C         135.2617  140.5946  156.0194 C.ar    1  UNL1        0.1157
     24 C         138.3731  143.3775  163.9724 C.3     1  UNL1        0.1115
     25 C         138.9334  142.4187  164.9808 C.3     1  UNL1        0.0388
     26 C         140.0217  142.8619  165.9132 C.3     1  UNL1        0.0048
     27 C         140.5820  141.9031  166.9215 C.3     1  UNL1        0.0174
     28 C         140.0540  140.5011  166.9975 C.3     1  UNL1        0.0720
     29 N         138.9657  140.0580  166.0652 N.3     1  UNL1       -0.2739
     30 C         138.4054  141.0168  165.0568 C.3     1  UNL1        0.0739
     31 C         138.4378  138.6561  166.1412 C.3     1  UNL1        0.0576
     32 C         137.4355  138.2882  167.1948 C.3     1  UNL1        0.0173
     33 C         138.9120  137.6220  165.1635 C.3     1  UNL1        0.0173
@<TRIPOS>BOND
     1     1     2    1
     2     2     3   ar
     3     3     4   ar
     4     4     5   ar
     5     5     6   ar
     6     6     7   ar
     7     7    13    1
     8    13    14    1
     9    14    15   ar
    10    15    16   ar
    11    16    17   ar
    12    17    18   ar
    13    18    19   ar
    14    19    20   ar
    15    20    21   ar
    16    21    22   ar
    17    22    23   ar
    18     7     8   ar
    19     8     9   ar
    20     9    10   ar
    21    10    11    2
    22    10    12   ar
    23    12    24    1
    24    25    24    1
    25    25    26    1
    26    26    27    1
    27    27    28    1
    28    28    29    1
    29    29    31    1
    30    31    32    1
    31    31    33    1
    32    29    30    1
    33    12     2   ar
    34    30    25    1
    35     9     4   ar
    36    23    14   ar
    37    23    18   ar
@<TRIPOS>MOLECULE
*****
 33 37 0 0 0
SMALL
GASTEIGER

@<TRIPOS>ATOM
      1 C         144.7336  138.3776  155.2823 C.3     1  UNL1        0.0719
      2 C         143.4785  138.3262  156.1021 C.ar    1  UNL1        0.1229
      3 N         143.4200  139.0241  157.4286 N.ar    1  UNL1       -0.2306
      4 C         142.1649  138.9727  158.2485 C.ar    1  UNL1        0.1065
      5 C         142.1065  139.6705  159.5749 C.ar    1  UNL1        0.1213
      6 N         140.8514  139.6191  160.3947 N.ar    1  UNL1       -0.2082
      7 C         139.6548  138.8698  159.8880 C.ar    1  UNL1        0.2300
      8 C         139.7133  138.1719  158.5616 C.ar    1  UNL1        0.0644
      9 C         140.9683  138.2234  157.7418 C.ar    1  UNL1        0.0800
     10 C         141.0268  137.5255  156.4153 C.ar    1  UNL1        0.2633
     11 O         139.8302  136.7762  155.9086 O.2     1  UNL1       -0.2669
     12 N         142.2819  137.5769  155.5955 N.ar    1  UNL1       -0.2840
     13 O         138.3997  138.8184  160.7079 O.3     1  UNL1       -0.4346
     14 C         138.4593  139.0628  162.1866 C.ar    1  UNL1        0.1646
     15 C         138.7233  137.9229  163.1252 C.ar    1  UNL1        0.0391
     16 C         138.7828  138.1674  164.6040 C.ar    1  UNL1        0.0032
     17 C         138.5784  139.5518  165.1442 C.ar    1  UNL1        0.0017
     18 C         138.3144  140.6917  164.2056 C.ar    1  UNL1        0.0207
     19 C         138.1099  142.0760  164.7457 C.ar    1  UNL1        0.0032
     20 C         137.8459  143.2159  163.8071 C.ar    1  UNL1        0.0207
     21 C         137.7864  142.9714  162.3284 C.ar    1  UNL1        0.0989
     22 N         137.9908  141.5871  161.7883 N.ar    1  UNL1       -0.2408
     23 C         138.2548  140.4472  162.7269 C.ar    1  UNL1        0.1157
     24 C         142.3404  136.8790  154.2690 C.3     1  UNL1        0.1115
     25 C         142.5030  135.3889  154.2120 C.3     1  UNL1        0.0388
     26 C         141.8715  134.6076  153.0980 C.3     1  UNL1        0.0048
     27 C         142.0341  133.1175  153.0410 C.3     1  UNL1        0.0174
     28 C         142.8280  132.4087  154.0981 C.3     1  UNL1        0.0720
     29 N         143.4594  133.1900  155.2120 N.3     1  UNL1       -0.2739
     30 C         143.2968  134.6801  155.2690 C.3     1  UNL1        0.0739
     31 C         144.2532  132.4812  156.2690 C.3     1  UNL1        0.0576
     32 C         144.8566  131.1387  155.9799 C.3     1  UNL1        0.0173
     33 C         144.4438  133.1149  157.6152 C.3     1  UNL1        0.0173
@<TRIPOS>BOND
     1     1     2    1
     2     2     3   ar
     3     3     4   ar
     4     4     5   ar
     5     5     6   ar
     6     6     7   ar
     7     7    13    1
     8    13    14    1
     9    14    15   ar
    10    15    16   ar
    11    16    17   ar
    12    17    18   ar
    13    18    19   ar
    14    19    20   ar
    15    20    21   ar
    16    21    22   ar
    17    22    23   ar
    18     7     8   ar
    19     8     9   ar
    20     9    10   ar
    21    10    11    2
    22    10    12   ar
    23    12    24    1
    24    25    24    1
    25    25    26    1
    26    26    27    1
    27    27    28    1
    28    28    29    1
    29    29    31    1
    30    31    32    1
    31    31    33    1
    32    29    30    1
    33    12     2   ar
    34    30    25    1
    35     9     4   ar
    36    23    14   ar
    37    23    18   ar
@<TRIPOS>MOLECULE
*****
 33 37 0 0 0
SMALL
GASTEIGER

@<TRIPOS>ATOM
      1 C         144.7673  138.1522  155.2878 C.3     1  UNL1        0.0719
      2 C         143.4959  138.1840  156.0832 C.ar    1  UNL1        0.1229
      3 N         143.4538  138.8979  157.4017 N.ar    1  UNL1       -0.2306
      4 C         142.1825  138.9297  158.1972 C.ar    1  UNL1        0.1065
      5 C         142.1404  139.6437  159.5157 C.ar    1  UNL1        0.1213
      6 N         140.8691  139.6754  160.3111 N.ar    1  UNL1       -0.2082
      7 C         139.6399  138.9932  159.7880 C.ar    1  UNL1        0.2300
      8 C         139.6820  138.2793  158.4695 C.ar    1  UNL1        0.0644
      9 C         140.9533  138.2475  157.6741 C.ar    1  UNL1        0.0800
     10 C         140.9954  137.5336  156.3556 C.ar    1  UNL1        0.2633
     11 O         139.7662  136.8514  155.8325 O.2     1  UNL1       -0.2669
     12 N         142.2667  137.5018  155.5602 N.ar    1  UNL1       -0.2840
     13 O         138.3685  139.0250  160.5835 O.3     1  UNL1       -0.4346
     14 C         138.2183  139.9934  161.7191 C.ar    1  UNL1        0.1646
     15 C         137.8913  141.4306  161.4408 C.ar    1  UNL1        0.0391
     16 C         137.7411  142.3991  162.5765 C.ar    1  UNL1        0.0032
     17 C         137.9180  141.9303  163.9903 C.ar    1  UNL1        0.0017
     18 C         138.2450  140.4930  164.2685 C.ar    1  UNL1        0.0207
     19 C         138.4219  140.0242  165.6823 C.ar    1  UNL1        0.0032
     20 C         138.7489  138.5870  165.9606 C.ar    1  UNL1        0.0207
     21 C         138.8991  137.6186  164.8250 C.ar    1  UNL1        0.0989
     22 N         138.7222  138.0874  163.4112 N.ar    1  UNL1       -0.2408
     23 C         138.3952  139.5246  163.1330 C.ar    1  UNL1        0.1157
     24 C         142.3088  136.7878  154.2416 C.3     1  UNL1        0.1115
     25 C         142.4974  135.3003  154.1999 C.3     1  UNL1        0.0388
     26 C         141.8931  134.4987  153.0853 C.3     1  UNL1        0.0048
     27 C         142.0817  133.0112  153.0435 C.3     1  UNL1        0.0174
     28 C         142.8746  132.3253  154.1164 C.3     1  UNL1        0.0720
     29 N         143.4789  133.1270  155.2309 N.3     1  UNL1       -0.2739
     30 C         143.2903  134.6145  155.2726 C.3     1  UNL1        0.0739
     31 C         144.2717  132.4411  156.3037 C.3     1  UNL1        0.0576
     32 C         144.3994  133.0695  157.6597 C.3     1  UNL1        0.0173
     33 C         144.9369  131.1268  156.0205 C.3     1  UNL1        0.0173
@<TRIPOS>BOND
     1     1     2    1
     2     2     3   ar
     3     3     4   ar
     4     4     5   ar
     5     5     6   ar
     6     6     7   ar
     7     7    13    1
     8    13    14    1
     9    14    15   ar
    10    15    16   ar
    11    16    17   ar
    12    17    18   ar
    13    18    19   ar
    14    19    20   ar
    15    20    21   ar
    16    21    22   ar
    17    22    23   ar
    18     7     8   ar
    19     8     9   ar
    20     9    10   ar
    21    10    11    2
    22    10    12   ar
    23    12    24    1
    24    25    24    1
    25    25    26    1
    26    26    27    1
    27    27    28    1
    28    28    29    1
    29    29    31    1
    30    31    32    1
    31    31    33    1
    32    29    30    1
    33    12     2   ar
    34    30    25    1
    35     9     4   ar
    36    23    14   ar
    37    23    18   ar
@<TRIPOS>MOLECULE
*****
 33 37 0 0 0
SMALL
GASTEIGER

@<TRIPOS>ATOM
      1 C         138.6477  140.4503  159.2641 C.3     1  UNL1        0.0719
      2 C         139.5355  139.4353  158.6068 C.ar    1  UNL1        0.1229
      3 N         139.0746  138.7258  157.3682 N.ar    1  UNL1       -0.2306
      4 C         139.9623  137.7109  156.7110 C.ar    1  UNL1        0.1065
      5 C         139.5015  137.0014  155.4724 C.ar    1  UNL1        0.1213
      6 N         140.3892  135.9865  154.8152 N.ar    1  UNL1       -0.2082
      7 C         141.7378  135.6812  155.3967 C.ar    1  UNL1        0.2300
      8 C         142.1987  136.3907  156.6352 C.ar    1  UNL1        0.0644
      9 C         141.3109  137.4056  157.2924 C.ar    1  UNL1        0.0800
     10 C         141.7718  138.1151  158.5311 C.ar    1  UNL1        0.2633
     11 O         143.1204  137.8098  159.1125 O.2     1  UNL1       -0.2669
     12 N         140.8841  139.1300  159.1882 N.ar    1  UNL1       -0.2840
     13 O         142.6256  134.6662  154.7394 O.3     1  UNL1       -0.4346
     14 C         142.3798  133.2025  154.9560 C.ar    1  UNL1        0.1646
     15 C         141.3279  132.4922  154.1566 C.ar    1  UNL1        0.0391
     16 C         141.0821  131.0284  154.3733 C.ar    1  UNL1        0.0032
     17 C         141.8882  130.2749  155.3893 C.ar    1  UNL1        0.0017
     18 C         142.9401  130.9851  156.1887 C.ar    1  UNL1        0.0207
     19 C         143.7462  130.2316  157.2048 C.ar    1  UNL1        0.0032
     20 C         144.7981  130.9419  158.0042 C.ar    1  UNL1        0.0207
     21 C         145.0439  132.4056  157.7876 C.ar    1  UNL1        0.0989
     22 N         144.2378  133.1591  156.7715 N.ar    1  UNL1       -0.2408
     23 C         143.1859  132.4489  155.9721 C.ar    1  UNL1        0.1157
     24 C         141.3449  139.8396  160.4269 C.3     1  UNL1        0.1115
     25 C         141.3915  139.1092  161.7362 C.3     1  UNL1        0.0388
     26 C         140.2880  138.1632  162.1070 C.3     1  UNL1        0.0048
     27 C         140.3347  137.4328  163.4163 C.3     1  UNL1        0.0174
     28 C         141.4848  137.6484  164.3548 C.3     1  UNL1        0.0720
     29 N         142.5882  138.5943  163.9840 N.3     1  UNL1       -0.2739
     30 C         142.5416  139.3247  162.6747 C.3     1  UNL1        0.0739
     31 C         143.7383  138.8099  164.9225 C.3     1  UNL1        0.0576
     32 C         143.6627  138.2996  166.3311 C.3     1  UNL1        0.0173
     33 C         144.9640  139.5357  164.4525 C.3     1  UNL1        0.0173
@<TRIPOS>BOND
     1     1     2    1
     2     2     3   ar
     3     3     4   ar
     4     4     5   ar
     5     5     6   ar
     6     6     7   ar
     7     7    13    1
     8    13    14    1
     9    14    15   ar
    10    15    16   ar
    11    16    17   ar
    12    17    18   ar
    13    18    19   ar
    14    19    20   ar
    15    20    21   ar
    16    21    22   ar
    17    22    23   ar
    18     7     8   ar
    19     8     9   ar
    20     9    10   ar
    21    10    11    2
    22    10    12   ar
    23    12    24    1
    24    25    24    1
    25    25    26    1
    26    26    27    1
    27    27    28    1
    28    28    29    1
    29    29    31    1
    30    31    32    1
    31    31    33    1
    32    29    30    1
    33    12     2   ar
    34    30    25    1
    35     9     4   ar
    36    23    14   ar
    37    23    18   ar
@<TRIPOS>MOLECULE
*****
 33 37 0 0 0
SMALL
GASTEIGER

@<TRIPOS>ATOM
      1 C         143.7278  145.2096  164.0250 C.3     1  UNL1        0.0719
      2 C         143.7516  143.9451  163.2184 C.ar    1  UNL1        0.1229
      3 N         143.6323  144.0060  161.7244 N.ar    1  UNL1       -0.2306
      4 C         143.6560  142.7415  160.9179 C.ar    1  UNL1        0.1065
      5 C         143.5368  142.8025  159.4239 C.ar    1  UNL1        0.1213
      6 N         143.5605  141.5380  158.6174 N.ar    1  UNL1       -0.2082
      7 C         143.7035  140.2125  159.3049 C.ar    1  UNL1        0.2300
      8 C         143.8228  140.1515  160.7989 C.ar    1  UNL1        0.0644
      9 C         143.7991  141.4160  161.6054 C.ar    1  UNL1        0.0800
     10 C         143.9183  141.3551  163.0994 C.ar    1  UNL1        0.2633
     11 O         144.0613  140.0296  163.7869 O.2     1  UNL1       -0.2669
     12 N         143.8946  142.6196  163.9059 N.ar    1  UNL1       -0.2840
     13 O         143.7273  138.9480  158.4983 O.3     1  UNL1       -0.4346
     14 C         142.4533  138.3971  157.9298 C.ar    1  UNL1        0.1646
     15 C         141.1314  138.9331  158.3937 C.ar    1  UNL1        0.0391
     16 C         139.8573  138.3822  157.8250 C.ar    1  UNL1        0.0032
     17 C         139.9052  137.2951  156.7925 C.ar    1  UNL1        0.0017
     18 C         141.2271  136.7591  156.3286 C.ar    1  UNL1        0.0207
     19 C         141.2750  135.6721  155.2961 C.ar    1  UNL1        0.0032
     20 C         142.5969  135.1360  154.8322 C.ar    1  UNL1        0.0207
     21 C         143.8709  135.6869  155.4008 C.ar    1  UNL1        0.0989
     22 N         143.8230  136.7739  156.4333 N.ar    1  UNL1       -0.2408
     23 C         142.5011  137.3100  156.8972 C.ar    1  UNL1        0.1157
     24 C         144.0139  142.5586  165.4000 C.3     1  UNL1        0.1115
     25 C         142.8047  142.2646  166.2375 C.3     1  UNL1        0.0388
     26 C         141.4389  142.6328  165.7382 C.3     1  UNL1        0.0048
     27 C         140.2297  142.3387  166.5757 C.3     1  UNL1        0.0174
     28 C         140.3863  141.6765  167.9125 C.3     1  UNL1        0.0720
     29 N         141.7520  141.3083  168.4117 N.3     1  UNL1       -0.2739
     30 C         142.9612  141.6024  167.5742 C.3     1  UNL1        0.0739
     31 C         141.9085  140.6461  169.7485 C.3     1  UNL1        0.0576
     32 C         141.6226  141.4149  171.0044 C.3     1  UNL1        0.0173
     33 C         142.3510  139.2151  169.8294 C.3     1  UNL1        0.0173
@<TRIPOS>BOND
     1     1     2    1
     2     2     3   ar
     3     3     4   ar
     4     4     5   ar
     5     5     6   ar
     6     6     7   ar
     7     7    13    1
     8    13    14    1
     9    14    15   ar
    10    15    16   ar
    11    16    17   ar
    12    17    18   ar
    13    18    19   ar
    14    19    20   ar
    15    20    21   ar
    16    21    22   ar
    17    22    23   ar
    18     7     8   ar
    19     8     9   ar
    20     9    10   ar
    21    10    11    2
    22    10    12   ar
    23    12    24    1
    24    25    24    1
    25    25    26    1
    26    26    27    1
    27    27    28    1
    28    28    29    1
    29    29    31    1
    30    31    32    1
    31    31    33    1
    32    29    30    1
    33    12     2   ar
    34    30    25    1
    35     9     4   ar
    36    23    14   ar
    37    23    18   ar
@<TRIPOS>MOLECULE
*****
 33 37 0 0 0
SMALL
GASTEIGER

@<TRIPOS>ATOM
      1 C         143.7325  144.9208  163.9229 C.3     1  UNL1        0.0719
      2 C         143.7658  143.7390  162.9996 C.ar    1  UNL1        0.1229
      3 N         143.6459  143.9411  161.5181 N.ar    1  UNL1       -0.2306
      4 C         143.6792  142.7593  160.5948 C.ar    1  UNL1        0.1065
      5 C         143.5592  142.9614  159.1134 C.ar    1  UNL1        0.1213
      6 N         143.5926  141.7796  158.1902 N.ar    1  UNL1       -0.2082
      7 C         143.7458  140.3958  158.7484 C.ar    1  UNL1        0.2300
      8 C         143.8658  140.1938  160.2298 C.ar    1  UNL1        0.0644
      9 C         143.8325  141.3755  161.1531 C.ar    1  UNL1        0.0800
     10 C         143.9524  141.1735  162.6346 C.ar    1  UNL1        0.2633
     11 O         144.1057  139.7897  163.1928 O.2     1  UNL1       -0.2669
     12 N         143.9191  142.3552  163.5578 N.ar    1  UNL1       -0.2840
     13 O         143.7792  139.2141  157.8251 O.3     1  UNL1       -0.4346
     14 C         142.4991  138.5560  157.4027 C.ar    1  UNL1        0.1646
     15 C         141.1819  139.1614  157.7880 C.ar    1  UNL1        0.0391
     16 C         139.9018  138.5032  157.3655 C.ar    1  UNL1        0.0032
     17 C         139.9391  137.2398  156.5579 C.ar    1  UNL1        0.0017
     18 C         141.2563  136.6344  156.1727 C.ar    1  UNL1        0.0207
     19 C         141.2935  135.3710  155.3651 C.ar    1  UNL1        0.0032
     20 C         142.6108  134.7656  154.9798 C.ar    1  UNL1        0.0207
     21 C         143.8908  135.4237  155.4022 C.ar    1  UNL1        0.0989
     22 N         143.8536  136.6871  156.2098 N.ar    1  UNL1       -0.2408
     23 C         142.5363  137.2925  156.5951 C.ar    1  UNL1        0.1157
     24 C         144.0391  142.1532  165.0393 C.3     1  UNL1        0.1115
     25 C         142.8048  141.9981  165.8775 C.3     1  UNL1        0.0388
     26 C         142.8844  142.1589  167.3668 C.3     1  UNL1        0.0048
     27 C         141.6501  142.0038  168.2049 C.3     1  UNL1        0.0174
     28 C         140.3362  141.6881  167.5538 C.3     1  UNL1        0.0720
     29 N         140.2566  141.5274  166.0646 N.3     1  UNL1       -0.2739
     30 C         141.4909  141.6824  165.2264 C.3     1  UNL1        0.0739
     31 C         138.9427  141.2116  165.4135 C.3     1  UNL1        0.0576
     32 C         138.2070  142.2757  164.6543 C.3     1  UNL1        0.0173
     33 C         138.3644  139.8317  165.5216 C.3     1  UNL1        0.0173
@<TRIPOS>BOND
     1     1     2    1
     2     2     3   ar
     3     3     4   ar
     4     4     5   ar
     5     5     6   ar
     6     6     7   ar
     7     7    13    1
     8    13    14    1
     9    14    15   ar
    10    15    16   ar
    11    16    17   ar
    12    17    18   ar
    13    18    19   ar
    14    19    20   ar
    15    20    21   ar
    16    21    22   ar
    17    22    23   ar
    18     7     8   ar
    19     8     9   ar
    20     9    10   ar
    21    10    11    2
    22    10    12   ar
    23    12    24    1
    24    25    24    1
    25    25    26    1
    26    26    27    1
    27    27    28    1
    28    28    29    1
    29    29    31    1
    30    31    32    1
    31    31    33    1
    32    29    30    1
    33    12     2   ar
    34    30    25    1
    35     9     4   ar
    36    23    14   ar
    37    23    18   ar
@<TRIPOS>MOLECULE
*****
 33 37 0 0 0
SMALL
GASTEIGER

@<TRIPOS>ATOM
      1 C         139.6453  143.6057  164.3301 C.3     1  UNL1        0.0719
      2 C         139.2323  142.7867  163.1431 C.ar    1  UNL1        0.1229
      3 N         139.3838  143.3434  161.7585 N.ar    1  UNL1       -0.2306
      4 C         138.9707  142.5244  160.5715 C.ar    1  UNL1        0.1065
      5 C         139.1222  143.0810  159.1870 C.ar    1  UNL1        0.1213
      6 N         138.7092  142.2621  158.0001 N.ar    1  UNL1       -0.2082
      7 C         138.1447  140.8865  158.1978 C.ar    1  UNL1        0.2300
      8 C         137.9932  140.3299  159.5824 C.ar    1  UNL1        0.0644
      9 C         138.4062  141.1489  160.7693 C.ar    1  UNL1        0.0800
     10 C         138.2547  140.5922  162.1540 C.ar    1  UNL1        0.2633
     11 O         137.6901  139.2167  162.3517 O.2     1  UNL1       -0.2669
     12 N         138.6677  141.4112  163.3408 N.ar    1  UNL1       -0.2840
     13 O         137.7316  140.0676  157.0109 O.3     1  UNL1       -0.4346
     14 C         136.8777  140.6777  155.9392 C.ar    1  UNL1        0.1646
     15 C         137.5185  141.3706  154.7733 C.ar    1  UNL1        0.0391
     16 C         136.6644  141.9807  153.7016 C.ar    1  UNL1        0.0032
     17 C         135.1697  141.8980  153.7959 C.ar    1  UNL1        0.0017
     18 C         134.5289  141.2052  154.9618 C.ar    1  UNL1        0.0207
     19 C         133.0342  141.1225  155.0561 C.ar    1  UNL1        0.0032
     20 C         132.3935  140.4296  156.2220 C.ar    1  UNL1        0.0207
     21 C         133.2474  139.8195  157.2937 C.ar    1  UNL1        0.0989
     22 N         134.7421  139.9022  157.1994 N.ar    1  UNL1       -0.2408
     23 C         135.3829  140.5950  156.0335 C.ar    1  UNL1        0.1157
     24 C         138.5162  140.8546  164.7255 C.3     1  UNL1        0.1115
     25 C         139.7168  140.3388  165.4620 C.3     1  UNL1        0.0388
     26 C         140.8650  139.7443  164.7015 C.3     1  UNL1        0.0048
     27 C         142.0657  139.2285  165.4379 C.3     1  UNL1        0.0174
     28 C         142.1181  139.3072  166.9350 C.3     1  UNL1        0.0720
     29 N         140.9700  139.9017  167.6955 N.3     1  UNL1       -0.2739
     30 C         139.7694  140.4175  166.9590 C.3     1  UNL1        0.0739
     31 C         141.0225  139.9804  169.1925 C.3     1  UNL1        0.0576
     32 C         139.7826  140.3085  169.9703 C.3     1  UNL1        0.0173
     33 C         142.3150  139.7309  169.9118 C.3     1  UNL1        0.0173
@<TRIPOS>BOND
     1     1     2    1
     2     2     3   ar
     3     3     4   ar
     4     4     5   ar
     5     5     6   ar
     6     6     7   ar
     7     7    13    1
     8    13    14    1
     9    14    15   ar
    10    15    16   ar
    11    16    17   ar
    12    17    18   ar
    13    18    19   ar
    14    19    20   ar
    15    20    21   ar
    16    21    22   ar
    17    22    23   ar
    18     7     8   ar
    19     8     9   ar
    20     9    10   ar
    21    10    11    2
    22    10    12   ar
    23    12    24    1
    24    25    24    1
    25    25    26    1
    26    26    27    1
    27    27    28    1
    28    28    29    1
    29    29    31    1
    30    31    32    1
    31    31    33    1
    32    29    30    1
    33    12     2   ar
    34    30    25    1
    35     9     4   ar
    36    23    14   ar
    37    23    18   ar
@<TRIPOS>MOLECULE
*****
 33 37 0 0 0
SMALL
GASTEIGER

@<TRIPOS>ATOM
      1 C         139.4465  137.8251  155.9843 C.3     1  UNL1        0.0719
      2 C         140.0602  138.1582  157.3119 C.ar    1  UNL1        0.1229
      3 N         139.1819  138.4322  158.4966 N.ar    1  UNL1       -0.2306
      4 C         139.7957  138.7652  159.8243 C.ar    1  UNL1        0.1065
      5 C         138.9174  139.0392  161.0089 C.ar    1  UNL1        0.1213
      6 N         139.5311  139.3722  162.3365 N.ar    1  UNL1       -0.2082
      7 C         141.0231  139.4312  162.4793 C.ar    1  UNL1        0.2300
      8 C         141.9014  139.1572  161.2946 C.ar    1  UNL1        0.0644
      9 C         141.2877  138.8242  159.9671 C.ar    1  UNL1        0.0800
     10 C         142.1660  138.5502  158.7823 C.ar    1  UNL1        0.2633
     11 O         143.6580  138.6092  158.9252 O.2     1  UNL1       -0.2669
     12 N         141.5522  138.2172  157.4548 N.ar    1  UNL1       -0.2840
     13 O         141.6369  139.7642  163.8069 O.3     1  UNL1       -0.4346
     14 C         142.8708  140.6146  163.8706 C.ar    1  UNL1        0.1646
     15 C         144.2232  139.9698  163.9428 C.ar    1  UNL1        0.0391
     16 C         145.4572  140.8203  164.0064 C.ar    1  UNL1        0.0032
     17 C         145.3388  142.3155  163.9979 C.ar    1  UNL1        0.0017
     18 C         143.9864  142.9604  163.9257 C.ar    1  UNL1        0.0207
     19 C         143.8680  144.4557  163.9172 C.ar    1  UNL1        0.0032
     20 C         142.5156  145.1005  163.8450 C.ar    1  UNL1        0.0207
     21 C         141.2816  144.2501  163.7814 C.ar    1  UNL1        0.0989
     22 N         141.4000  142.7548  163.7899 N.ar    1  UNL1       -0.2408
     23 C         142.7524  142.1100  163.8621 C.ar    1  UNL1        0.1157
     24 C         142.4305  137.9432  156.2700 C.3     1  UNL1        0.1115
     25 C         142.5478  136.5487  155.7299 C.3     1  UNL1        0.0388
     26 C         142.2276  136.2725  154.2907 C.3     1  UNL1        0.0048
     27 C         142.3449  134.8780  153.7506 C.3     1  UNL1        0.0174
     28 C         142.7824  133.7598  154.6497 C.3     1  UNL1        0.0720
     29 N         143.1026  134.0361  156.0888 N.3     1  UNL1       -0.2739
     30 C         142.9853  135.4306  156.6289 C.3     1  UNL1        0.0739
     31 C         143.5401  132.9179  156.9878 C.3     1  UNL1        0.0576
     32 C         144.6265  133.1477  157.9962 C.3     1  UNL1        0.0173
     33 C         142.8911  131.5700  156.8785 C.3     1  UNL1        0.0173
@<TRIPOS>BOND
     1     1     2    1
     2     2     3   ar
     3     3     4   ar
     4     4     5   ar
     5     5     6   ar
     6     6     7   ar
     7     7    13    1
     8    13    14    1
     9    14    15   ar
    10    15    16   ar
    11    16    17   ar
    12    17    18   ar
    13    18    19   ar
    14    19    20   ar
    15    20    21   ar
    16    21    22   ar
    17    22    23   ar
    18     7     8   ar
    19     8     9   ar
    20     9    10   ar
    21    10    11    2
    22    10    12   ar
    23    12    24    1
    24    25    24    1
    25    25    26    1
    26    26    27    1
    27    27    28    1
    28    28    29    1
    29    29    31    1
    30    31    32    1
    31    31    33    1
    32    29    30    1
    33    12     2   ar
    34    30    25    1
    35     9     4   ar
    36    23    14   ar
    37    23    18   ar
@<TRIPOS>MOLECULE
*****
 33 37 0 0 0
SMALL
GASTEIGER

@<TRIPOS>ATOM
      1 C         138.6199  138.6736  164.3254 C.3     1  UNL1        0.0719
      2 C         139.6386  138.5309  163.2336 C.ar    1  UNL1        0.1229
      3 N         139.2076  138.5604  161.7972 N.ar    1  UNL1       -0.2306
      4 C         140.2263  138.4177  160.7054 C.ar    1  UNL1        0.1065
      5 C         139.7953  138.4472  159.2690 C.ar    1  UNL1        0.1213
      6 N         140.8140  138.3045  158.1773 N.ar    1  UNL1       -0.2082
      7 C         142.2637  138.1323  158.5220 C.ar    1  UNL1        0.2300
      8 C         142.6947  138.1028  159.9584 C.ar    1  UNL1        0.0644
      9 C         141.6760  138.2455  161.0501 C.ar    1  UNL1        0.0800
     10 C         142.1069  138.2160  162.4866 C.ar    1  UNL1        0.2633
     11 O         143.5566  138.0438  162.8313 O.2     1  UNL1       -0.2669
     12 N         141.0883  138.3587  163.5783 N.ar    1  UNL1       -0.2840
     13 O         143.2824  137.9897  157.4302 O.3     1  UNL1       -0.4346
     14 C         142.9306  137.2620  156.1666 C.ar    1  UNL1        0.1646
     15 C         142.5806  138.0340  154.9291 C.ar    1  UNL1        0.0391
     16 C         142.2288  137.3062  153.6655 C.ar    1  UNL1        0.0032
     17 C         142.2270  135.8065  153.6394 C.ar    1  UNL1        0.0017
     18 C         142.5770  135.0345  154.8769 C.ar    1  UNL1        0.0207
     19 C         142.5753  133.5347  154.8509 C.ar    1  UNL1        0.0032
     20 C         142.9253  132.7627  156.0884 C.ar    1  UNL1        0.0207
     21 C         143.2771  133.4904  157.3519 C.ar    1  UNL1        0.0989
     22 N         143.2789  134.9901  157.3780 N.ar    1  UNL1       -0.2408
     23 C         142.9288  135.7621  156.1405 C.ar    1  UNL1        0.1157
     24 C         141.5192  138.3291  165.0148 C.3     1  UNL1        0.1115
     25 C         141.9831  139.5886  165.6847 C.3     1  UNL1        0.0388
     26 C         142.1879  139.6162  167.1705 C.3     1  UNL1        0.0048
     27 C         142.6518  140.8756  167.8403 C.3     1  UNL1        0.0174
     28 C         142.9109  142.1074  167.0244 C.3     1  UNL1        0.0720
     29 N         142.7061  142.0797  165.5387 N.3     1  UNL1       -0.2739
     30 C         142.2422  140.8203  164.8689 C.3     1  UNL1        0.0739
     31 C         142.9653  143.3114  164.7229 C.3     1  UNL1        0.0576
     32 C         141.9482  143.7767  163.7233 C.3     1  UNL1        0.0173
     33 C         144.2415  144.0781  164.9067 C.3     1  UNL1        0.0173
@<TRIPOS>BOND
     1     1     2    1
     2     2     3   ar
     3     3     4   ar
     4     4     5   ar
     5     5     6   ar
     6     6     7   ar
     7     7    13    1
     8    13    14    1
     9    14    15   ar
    10    15    16   ar
    11    16    17   ar
    12    17    18   ar
    13    18    19   ar
    14    19    20   ar
    15    20    21   ar
    16    21    22   ar
    17    22    23   ar
    18     7     8   ar
    19     8     9   ar
    20     9    10   ar
    21    10    11    2
    22    10    12   ar
    23    12    24    1
    24    25    24    1
    25    25    26    1
    26    26    27    1
    27    27    28    1
    28    28    29    1
    29    29    31    1
    30    31    32    1
    31    31    33    1
    32    29    30    1
    33    12     2   ar
    34    30    25    1
    35     9     4   ar
    36    23    14   ar
    37    23    18   ar
