@<TRIPOS>MOLECULE
*****
 30 34 0 0 0
SMALL
GASTEIGER

@<TRIPOS>ATOM
      1 C         139.7089  139.4328  164.8945 C.ar    1  UNL1        0.0344
      2 C         139.0575  140.3312  163.8853 C.ar    1  UNL1        0.0061
      3 C         138.8717  139.8619  162.4728 C.ar    1  UNL1        0.0370
      4 C         139.3372  138.4942  162.0695 C.ar    1  UNL1        0.1384
      5 C         139.9886  137.5958  163.0787 C.ar    1  UNL1        0.0370
      6 C         140.1745  138.0651  164.4912 C.ar    1  UNL1        0.0061
      7 C         143.4132  142.4978  167.3712 C.3     1  UNL1        0.0326
      8 C         142.4261  142.1019  168.4290 C.ar    1  UNL1       -0.0040
      9 C         142.6119  142.5712  169.8415 C.ar    1  UNL1       -0.0028
     10 C         141.6248  142.1753  170.8993 C.ar    1  UNL1       -0.0001
     11 C         140.4520  141.3100  170.5446 C.ar    1  UNL1        0.0062
     12 C         140.2663  140.8407  169.1321 C.ar    1  UNL1        0.0735
     13 C         139.0934  139.9755  168.7774 C.ar    1  UNL1        0.2634
     14 O         138.1063  139.5796  169.8352 O.2     1  UNL1       -0.2669
     15 N         138.9076  139.5062  167.3649 N.ar    1  UNL1       -0.2786
     16 C         137.7348  138.6409  167.0101 C.3     1  UNL1        0.1350
     17 C         139.8947  139.9021  166.3071 C.ar    1  UNL1        0.1460
     18 N         141.0675  140.7673  166.6618 N.ar    1  UNL1       -0.2284
     19 C         141.2533  141.2367  168.0743 C.ar    1  UNL1        0.0835
     20 O         139.1514  138.0249  160.6569 O.3     1  UNL1       -0.4791
     21 C         140.2182  138.2829  159.6344 C.3     1  UNL1        0.1687
     22 C         141.6377  138.4977  160.0693 C.3     1  UNL1        0.0609
     23 C         142.7044  138.7557  159.0468 C.3     1  UNL1        0.0758
     24 N         142.3517  138.7990  157.5895 N.3     1  UNL1       -0.2737
     25 C         140.9323  138.5842  157.1547 C.3     1  UNL1        0.0758
     26 C         139.8655  138.3262  158.1772 C.3     1  UNL1        0.0609
     27 C         143.4184  139.0570  156.5670 C.3     1  UNL1        0.0575
     28 C         143.9123  138.3403  155.3453 C.3     1  UNL1        0.0160
     29 C         144.9270  139.4219  155.1210 C.3     1  UNL1        0.0028
     30 C         144.4332  140.1386  156.3426 C.3     1  UNL1        0.0160
@<TRIPOS>BOND
     1     7     8    1
     2     8     9   ar
     3     9    10   ar
     4    10    11   ar
     5    11    12   ar
     6    12    13   ar
     7    13    14    2
     8    13    15   ar
     9    15    16    1
    10    15    17   ar
    11    17     1    1
    12     1     2   ar
    13     2     3   ar
    14     3     4   ar
    15     4    20    1
    16    20    21    1
    17    21    22    1
    18    22    23    1
    19    23    24    1
    20    24    27    1
    21    27    28    1
    22    28    29    1
    23    29    30    1
    24    24    25    1
    25    25    26    1
    26     4     5   ar
    27     5     6   ar
    28    17    18   ar
    29    18    19   ar
    30    19     8   ar
    31    19    12   ar
    32     6     1   ar
    33    26    21    1
    34    30    27    1
@<TRIPOS>MOLECULE
*****
 30 34 0 0 0
SMALL
GASTEIGER

@<TRIPOS>ATOM
      1 C         142.6631  138.5166  159.8912 C.ar    1  UNL1        0.0344
      2 C         143.5944  139.6922  159.9181 C.ar    1  UNL1        0.0061
      3 C         144.3019  140.0595  161.1887 C.ar    1  UNL1        0.0370
      4 C         144.0781  139.2513  162.4324 C.ar    1  UNL1        0.1384
      5 C         143.1467  138.0758  162.4054 C.ar    1  UNL1        0.0370
      6 C         142.4392  137.7084  161.1348 C.ar    1  UNL1        0.0061
      7 C         143.8995  135.3363  155.6951 C.3     1  UNL1        0.0326
      8 C         142.5440  135.9067  155.3996 C.ar    1  UNL1       -0.0040
      9 C         141.8365  135.5394  154.1290 C.ar    1  UNL1       -0.0028
     10 C         140.4810  136.1097  153.8335 C.ar    1  UNL1       -0.0001
     11 C         139.8330  137.0474  154.8086 C.ar    1  UNL1        0.0062
     12 C         140.5405  137.4146  156.0792 C.ar    1  UNL1        0.0735
     13 C         139.8925  138.3523  157.0544 C.ar    1  UNL1        0.2634
     14 O         138.5370  138.9227  156.7590 O.2     1  UNL1       -0.2669
     15 N         140.6000  138.7196  158.3250 N.ar    1  UNL1       -0.2786
     16 C         139.9520  139.6573  159.3002 C.3     1  UNL1        0.1350
     17 C         141.9555  138.1493  158.6205 C.ar    1  UNL1        0.1460
     18 N         142.6035  137.2117  157.6454 N.ar    1  UNL1       -0.2284
     19 C         141.8960  136.8443  156.3747 C.ar    1  UNL1        0.0835
     20 O         144.7856  139.6187  163.7031 O.3     1  UNL1       -0.4791
     21 C         144.0379  140.3088  164.8052 C.3     1  UNL1        0.1687
     22 C         143.2720  139.5021  165.8115 C.3     1  UNL1        0.0609
     23 C         142.5243  140.1922  166.9137 C.3     1  UNL1        0.0758
     24 N         142.5426  141.6891  167.0095 N.3     1  UNL1       -0.2737
     25 C         143.3085  142.4958  166.0032 C.3     1  UNL1        0.0758
     26 C         144.0561  141.8056  164.9010 C.3     1  UNL1        0.0609
     27 C         141.7949  142.3793  168.1116 C.3     1  UNL1        0.0575
     28 C         140.4159  142.9499  168.2623 C.3     1  UNL1        0.0160
     29 C         140.7376  143.3553  169.6702 C.3     1  UNL1        0.0028
     30 C         142.1165  142.7847  169.5195 C.3     1  UNL1        0.0160
@<TRIPOS>BOND
     1     7     8    1
     2     8     9   ar
     3     9    10   ar
     4    10    11   ar
     5    11    12   ar
     6    12    13   ar
     7    13    14    2
     8    13    15   ar
     9    15    16    1
    10    15    17   ar
    11    17     1    1
    12     1     2   ar
    13     2     3   ar
    14     3     4   ar
    15     4    20    1
    16    20    21    1
    17    21    22    1
    18    22    23    1
    19    23    24    1
    20    24    27    1
    21    27    28    1
    22    28    29    1
    23    29    30    1
    24    24    25    1
    25    25    26    1
    26     4     5   ar
    27     5     6   ar
    28    17    18   ar
    29    18    19   ar
    30    19     8   ar
    31    19    12   ar
    32     6     1   ar
    33    26    21    1
    34    30    27    1
@<TRIPOS>MOLECULE
*****
 30 34 0 0 0
SMALL
GASTEIGER

@<TRIPOS>ATOM
      1 C         138.3351  140.1093  159.9923 C.ar    1  UNL1        0.0344
      2 C         139.1022  138.8203  159.9798 C.ar    1  UNL1        0.0061
      3 C         139.2668  138.0332  161.2460 C.ar    1  UNL1        0.0370
      4 C         138.6643  138.5351  162.5247 C.ar    1  UNL1        0.1384
      5 C         137.8972  139.8241  162.5372 C.ar    1  UNL1        0.0370
      6 C         137.7326  140.6111  161.2710 C.ar    1  UNL1        0.0061
      7 C         134.6045  140.1772  156.0771 C.3     1  UNL1        0.0326
      8 C         135.6286  141.2040  155.6938 C.ar    1  UNL1       -0.0040
      9 C         135.4640  141.9910  154.4276 C.ar    1  UNL1       -0.0028
     10 C         136.4881  143.0178  154.0443 C.ar    1  UNL1       -0.0001
     11 C         137.6768  143.2575  154.9272 C.ar    1  UNL1        0.0062
     12 C         137.8413  142.4705  156.1934 C.ar    1  UNL1        0.0735
     13 C         139.0300  142.7102  157.0764 C.ar    1  UNL1        0.2634
     14 O         140.0541  143.7370  156.6931 O.2     1  UNL1       -0.2669
     15 N         139.1946  141.9231  158.3427 N.ar    1  UNL1       -0.2786
     16 C         140.3833  142.1628  159.2257 C.3     1  UNL1        0.1350
     17 C         138.1705  140.8963  158.7260 C.ar    1  UNL1        0.1460
     18 N         136.9818  140.6566  157.8430 N.ar    1  UNL1       -0.2284
     19 C         136.8172  141.4437  156.5767 C.ar    1  UNL1        0.0835
     20 O         138.8289  137.7480  163.7910 O.3     1  UNL1       -0.4791
     21 C         139.1297  138.4546  165.0795 C.3     1  UNL1        0.1687
     22 C         140.4781  139.0746  165.2979 C.3     1  UNL1        0.0609
     23 C         140.7789  139.7812  166.5864 C.3     1  UNL1        0.0758
     24 N         139.7313  139.8679  167.6565 N.3     1  UNL1       -0.2737
     25 C         138.3830  139.2480  167.4381 C.3     1  UNL1        0.0758
     26 C         138.0822  138.5413  166.1496 C.3     1  UNL1        0.0609
     27 C         140.0321  140.5745  168.9450 C.3     1  UNL1        0.0575
     28 C         140.2669  142.0018  169.3423 C.3     1  UNL1        0.0160
     29 C         140.4575  141.5738  170.7672 C.3     1  UNL1        0.0028
     30 C         140.2227  140.1466  170.3700 C.3     1  UNL1        0.0160
@<TRIPOS>BOND
     1     7     8    1
     2     8     9   ar
     3     9    10   ar
     4    10    11   ar
     5    11    12   ar
     6    12    13   ar
     7    13    14    2
     8    13    15   ar
     9    15    16    1
    10    15    17   ar
    11    17     1    1
    12     1     2   ar
    13     2     3   ar
    14     3     4   ar
    15     4    20    1
    16    20    21    1
    17    21    22    1
    18    22    23    1
    19    23    24    1
    20    24    27    1
    21    27    28    1
    22    28    29    1
    23    29    30    1
    24    24    25    1
    25    25    26    1
    26     4     5   ar
    27     5     6   ar
    28    17    18   ar
    29    18    19   ar
    30    19     8   ar
    31    19    12   ar
    32     6     1   ar
    33    26    21    1
    34    30    27    1
@<TRIPOS>MOLECULE
*****
 30 34 0 0 0
SMALL
GASTEIGER

@<TRIPOS>ATOM
      1 C         140.9760  139.4289  160.2798 C.ar    1  UNL1        0.0344
      2 C         140.2581  138.9218  159.0643 C.ar    1  UNL1        0.0061
      3 C         141.0165  138.1928  157.9950 C.ar    1  UNL1        0.0370
      4 C         142.4928  137.9710  158.1412 C.ar    1  UNL1        0.1384
      5 C         143.2107  138.4782  159.3567 C.ar    1  UNL1        0.0370
      6 C         142.4523  139.2071  160.4260 C.ar    1  UNL1        0.0061
      7 C         139.9132  144.6460  161.2300 C.3     1  UNL1        0.0326
      8 C         139.2562  143.8789  162.3390 C.ar    1  UNL1       -0.0040
      9 C         138.4978  144.6078  163.4083 C.ar    1  UNL1       -0.0028
     10 C         137.8408  143.8407  164.5173 C.ar    1  UNL1       -0.0001
     11 C         137.9422  142.3447  164.5570 C.ar    1  UNL1        0.0062
     12 C         138.7006  141.6158  163.4877 C.ar    1  UNL1        0.0735
     13 C         138.8021  140.1197  163.5274 C.ar    1  UNL1        0.2634
     14 O         138.1451  139.3526  164.6364 O.2     1  UNL1       -0.2669
     15 N         139.5605  139.3908  162.4581 N.ar    1  UNL1       -0.2786
     16 C         139.6620  137.8947  162.4978 C.3     1  UNL1        0.1350
     17 C         140.2175  140.1579  161.3491 C.ar    1  UNL1        0.1460
     18 N         140.1161  141.6539  161.3094 N.ar    1  UNL1       -0.2284
     19 C         139.3576  142.3829  162.3787 C.ar    1  UNL1        0.0835
     20 O         143.2513  137.2420  157.0719 O.3     1  UNL1       -0.4791
     21 C         142.8241  135.8659  156.6549 C.3     1  UNL1        0.1687
     22 C         141.7990  135.6943  155.5734 C.3     1  UNL1        0.0609
     23 C         141.3718  134.3182  155.1564 C.3     1  UNL1        0.0758
     24 N         141.9698  133.1137  155.8211 N.3     1  UNL1       -0.2737
     25 C         142.9948  133.2853  156.9026 C.3     1  UNL1        0.0758
     26 C         143.4220  134.6615  157.3196 C.3     1  UNL1        0.0609
     27 C         141.5426  131.7375  155.4042 C.3     1  UNL1        0.0575
     28 C         140.3733  131.1715  154.6543 C.3     1  UNL1        0.0160
     29 C         140.9385  129.7914  154.8146 C.3     1  UNL1        0.0028
     30 C         142.1078  130.3574  155.5645 C.3     1  UNL1        0.0160
@<TRIPOS>BOND
     1     7     8    1
     2     8     9   ar
     3     9    10   ar
     4    10    11   ar
     5    11    12   ar
     6    12    13   ar
     7    13    14    2
     8    13    15   ar
     9    15    16    1
    10    15    17   ar
    11    17     1    1
    12     1     2   ar
    13     2     3   ar
    14     3     4   ar
    15     4    20    1
    16    20    21    1
    17    21    22    1
    18    22    23    1
    19    23    24    1
    20    24    27    1
    21    27    28    1
    22    28    29    1
    23    29    30    1
    24    24    25    1
    25    25    26    1
    26     4     5   ar
    27     5     6   ar
    28    17    18   ar
    29    18    19   ar
    30    19     8   ar
    31    19    12   ar
    32     6     1   ar
    33    26    21    1
    34    30    27    1
@<TRIPOS>MOLECULE
*****
 30 34 0 0 0
SMALL
GASTEIGER

@<TRIPOS>ATOM
      1 C         141.6599  138.9445  161.9075 C.ar    1  UNL1        0.0344
      2 C         142.7721  137.9491  161.7582 C.ar    1  UNL1        0.0061
      3 C         143.2650  137.5745  160.3920 C.ar    1  UNL1        0.0370
      4 C         142.6457  138.1952  159.1750 C.ar    1  UNL1        0.1384
      5 C         141.5335  139.1906  159.3242 C.ar    1  UNL1        0.0370
      6 C         141.0406  139.5652  160.6905 C.ar    1  UNL1        0.0061
      7 C         143.3533  142.4307  165.6796 C.3     1  UNL1        0.0326
      8 C         142.1317  141.7681  166.2440 C.ar    1  UNL1       -0.0040
      9 C         141.6388  142.1427  167.6102 C.ar    1  UNL1       -0.0028
     10 C         140.4171  141.4801  168.1745 C.ar    1  UNL1       -0.0001
     11 C         139.6883  140.4429  167.3726 C.ar    1  UNL1        0.0062
     12 C         140.1812  140.0683  166.0064 C.ar    1  UNL1        0.0735
     13 C         139.4525  139.0311  165.2044 C.ar    1  UNL1        0.2634
     14 O         138.2308  138.3685  165.7687 O.2     1  UNL1       -0.2669
     15 N         139.9454  138.6565  163.8381 N.ar    1  UNL1       -0.2786
     16 C         139.2166  137.6193  163.0361 C.3     1  UNL1        0.1350
     17 C         141.1670  139.3191  163.2738 C.ar    1  UNL1        0.1460
     18 N         141.8958  140.3563  164.0757 N.ar    1  UNL1       -0.2284
     19 C         141.4029  140.7309  165.4420 C.ar    1  UNL1        0.0835
     20 O         143.1386  137.8206  157.8087 O.3     1  UNL1       -0.4791
     21 C         142.7988  136.4788  157.2306 C.3     1  UNL1        0.1687
     22 C         143.4878  135.2470  157.7387 C.3     1  UNL1        0.0609
     23 C         143.1480  133.9052  157.1606 C.3     1  UNL1        0.0758
     24 N         142.1192  133.7952  156.0745 N.3     1  UNL1       -0.2737
     25 C         141.4303  135.0270  155.5665 C.3     1  UNL1        0.0758
     26 C         141.7701  136.3688  156.1445 C.3     1  UNL1        0.0609
     27 C         141.7794  132.4535  155.4964 C.3     1  UNL1        0.0575
     28 C         140.8428  131.9634  154.4321 C.3     1  UNL1        0.0160
     29 C         141.2989  130.5559  154.6789 C.3     1  UNL1        0.0028
     30 C         142.2354  131.0459  155.7431 C.3     1  UNL1        0.0160
@<TRIPOS>BOND
     1     7     8    1
     2     8     9   ar
     3     9    10   ar
     4    10    11   ar
     5    11    12   ar
     6    12    13   ar
     7    13    14    2
     8    13    15   ar
     9    15    16    1
    10    15    17   ar
    11    17     1    1
    12     1     2   ar
    13     2     3   ar
    14     3     4   ar
    15     4    20    1
    16    20    21    1
    17    21    22    1
    18    22    23    1
    19    23    24    1
    20    24    27    1
    21    27    28    1
    22    28    29    1
    23    29    30    1
    24    24    25    1
    25    25    26    1
    26     4     5   ar
    27     5     6   ar
    28    17    18   ar
    29    18    19   ar
    30    19     8   ar
    31    19    12   ar
    32     6     1   ar
    33    26    21    1
    34    30    27    1
@<TRIPOS>MOLECULE
*****
 30 34 0 0 0
SMALL
GASTEIGER

@<TRIPOS>ATOM
      1 C         140.8352  139.1955  163.8172 C.ar    1  UNL1        0.0344
      2 C         141.7681  138.0542  163.5395 C.ar    1  UNL1        0.0061
      3 C         142.0738  137.6627  162.1241 C.ar    1  UNL1        0.0370
      4 C         141.4464  138.4125  160.9865 C.ar    1  UNL1        0.1384
      5 C         140.5135  139.5537  161.2642 C.ar    1  UNL1        0.0370
      6 C         140.2079  139.9452  162.6795 C.ar    1  UNL1        0.0061
      7 C         143.1918  142.5084  167.3839 C.3     1  UNL1        0.0326
      8 C         141.9988  141.9260  168.0822 C.ar    1  UNL1       -0.0040
      9 C         141.6931  142.3175  169.4976 C.ar    1  UNL1       -0.0028
     10 C         140.5001  141.7352  170.1959 C.ar    1  UNL1       -0.0001
     11 C         139.6127  140.7614  169.4788 C.ar    1  UNL1        0.0062
     12 C         139.9183  140.3700  168.0634 C.ar    1  UNL1        0.0735
     13 C         139.0309  139.3961  167.3463 C.ar    1  UNL1        0.2634
     14 O         137.8379  138.8138  168.0445 O.2     1  UNL1       -0.2669
     15 N         139.3366  139.0047  165.9309 N.ar    1  UNL1       -0.2786
     16 C         138.4492  138.0308  165.2137 C.3     1  UNL1        0.1350
     17 C         140.5296  139.5870  165.2326 C.ar    1  UNL1        0.1460
     18 N         141.4170  140.5608  165.9497 N.ar    1  UNL1       -0.2284
     19 C         141.1114  140.9523  167.3651 C.ar    1  UNL1        0.0835
     20 O         141.7521  138.0209  159.5710 O.3     1  UNL1       -0.4791
     21 C         142.7177  138.8332  158.7601 C.3     1  UNL1        0.1687
     22 C         143.5119  139.9257  159.4127 C.3     1  UNL1        0.0609
     23 C         144.4776  140.7380  158.6017 C.3     1  UNL1        0.0758
     24 N         144.6491  140.4578  157.1381 N.3     1  UNL1       -0.2737
     25 C         143.8549  139.3654  156.4855 C.3     1  UNL1        0.0758
     26 C         142.8892  138.5531  157.2965 C.3     1  UNL1        0.0609
     27 C         145.6147  141.2701  156.3271 C.3     1  UNL1        0.0575
     28 C         145.9538  141.3702  154.8693 C.3     1  UNL1        0.0160
     29 C         146.9804  142.4188  155.1802 C.3     1  UNL1        0.0028
     30 C         146.6413  142.3187  156.6379 C.3     1  UNL1        0.0160
@<TRIPOS>BOND
     1     7     8    1
     2     8     9   ar
     3     9    10   ar
     4    10    11   ar
     5    11    12   ar
     6    12    13   ar
     7    13    14    2
     8    13    15   ar
     9    15    16    1
    10    15    17   ar
    11    17     1    1
    12     1     2   ar
    13     2     3   ar
    14     3     4   ar
    15     4    20    1
    16    20    21    1
    17    21    22    1
    18    22    23    1
    19    23    24    1
    20    24    27    1
    21    27    28    1
    22    28    29    1
    23    29    30    1
    24    24    25    1
    25    25    26    1
    26     4     5   ar
    27     5     6   ar
    28    17    18   ar
    29    18    19   ar
    30    19     8   ar
    31    19    12   ar
    32     6     1   ar
    33    26    21    1
    34    30    27    1
@<TRIPOS>MOLECULE
*****
 30 34 0 0 0
SMALL
GASTEIGER

@<TRIPOS>ATOM
      1 C         142.3806  140.2414  159.0568 C.ar    1  UNL1        0.0344
      2 C         141.1677  139.3635  159.1459 C.ar    1  UNL1        0.0061
      3 C         140.9360  138.2976  158.1163 C.ar    1  UNL1        0.0370
      4 C         141.9173  138.1096  156.9976 C.ar    1  UNL1        0.1384
      5 C         143.1303  138.9876  156.9084 C.ar    1  UNL1        0.0370
      6 C         143.3619  140.0534  157.9381 C.ar    1  UNL1        0.0061
      7 C         145.0186  140.3868  163.7760 C.3     1  UNL1        0.0326
      8 C         144.4481  141.7596  163.5758 C.ar    1  UNL1       -0.0040
      9 C         144.6797  142.8255  164.6054 C.ar    1  UNL1       -0.0028
     10 C         144.1092  144.1982  164.4052 C.ar    1  UNL1       -0.0001
     11 C         143.3072  144.5051  163.1754 C.ar    1  UNL1        0.0062
     12 C         143.0755  143.4392  162.1458 C.ar    1  UNL1        0.0735
     13 C         142.2734  143.7460  160.9159 C.ar    1  UNL1        0.2634
     14 O         141.7029  145.1188  160.7158 O.2     1  UNL1       -0.2669
     15 N         142.0418  142.6801  159.8863 N.ar    1  UNL1       -0.2786
     16 C         141.2397  142.9869  158.6565 C.3     1  UNL1        0.1350
     17 C         142.6123  141.3073  160.0865 C.ar    1  UNL1        0.1460
     18 N         143.4144  141.0005  161.3163 N.ar    1  UNL1       -0.2284
     19 C         143.6460  142.0664  162.3460 C.ar    1  UNL1        0.0835
     20 O         141.6856  137.0437  155.9679 O.3     1  UNL1       -0.4791
     21 C         142.1300  135.6358  156.2328 C.3     1  UNL1        0.1687
     22 C         141.5607  134.5055  155.4275 C.3     1  UNL1        0.0609
     23 C         142.0050  133.0975  155.6925 C.3     1  UNL1        0.0758
     24 N         143.0187  132.8199  156.7628 N.3     1  UNL1       -0.2737
     25 C         143.5880  133.9501  157.5680 C.3     1  UNL1        0.0758
     26 C         143.1436  135.3581  157.3030 C.3     1  UNL1        0.0609
     27 C         143.4631  131.4119  157.0278 C.3     1  UNL1        0.0575
     28 C         144.5627  130.7796  157.8286 C.3     1  UNL1        0.0160
     29 C         144.0915  129.4208  157.4025 C.3     1  UNL1        0.0028
     30 C         142.9920  130.0530  156.6018 C.3     1  UNL1        0.0160
@<TRIPOS>BOND
     1     7     8    1
     2     8     9   ar
     3     9    10   ar
     4    10    11   ar
     5    11    12   ar
     6    12    13   ar
     7    13    14    2
     8    13    15   ar
     9    15    16    1
    10    15    17   ar
    11    17     1    1
    12     1     2   ar
    13     2     3   ar
    14     3     4   ar
    15     4    20    1
    16    20    21    1
    17    21    22    1
    18    22    23    1
    19    23    24    1
    20    24    27    1
    21    27    28    1
    22    28    29    1
    23    29    30    1
    24    24    25    1
    25    25    26    1
    26     4     5   ar
    27     5     6   ar
    28    17    18   ar
    29    18    19   ar
    30    19     8   ar
    31    19    12   ar
    32     6     1   ar
    33    26    21    1
    34    30    27    1
@<TRIPOS>MOLECULE
*****
 30 34 0 0 0
SMALL
GASTEIGER

@<TRIPOS>ATOM
      1 C         142.2175  140.8237  164.6120 C.ar    1  UNL1        0.0344
      2 C         143.3827  139.9744  164.1987 C.ar    1  UNL1        0.0061
      3 C         143.9679  140.1209  162.8254 C.ar    1  UNL1        0.0370
      4 C         143.3878  141.1168  161.8653 C.ar    1  UNL1        0.1384
      5 C         142.2225  141.9661  162.2786 C.ar    1  UNL1        0.0370
      6 C         141.6374  141.8196  163.6519 C.ar    1  UNL1        0.0061
      7 C         143.7918  142.3844  169.5452 C.3     1  UNL1        0.0326
      8 C         142.4868  141.6687  169.7319 C.ar    1  UNL1       -0.0040
      9 C         141.9017  141.5222  171.1052 C.ar    1  UNL1       -0.0028
     10 C         140.5967  140.8065  171.2920 C.ar    1  UNL1       -0.0001
     11 C         139.8769  140.2375  170.1054 C.ar    1  UNL1        0.0062
     12 C         140.4620  140.3840  168.7321 C.ar    1  UNL1        0.0735
     13 C         139.7422  139.8149  167.5455 C.ar    1  UNL1        0.2634
     14 O         138.4372  139.0993  167.7322 O.2     1  UNL1       -0.2669
     15 N         140.3273  139.9615  166.1722 N.ar    1  UNL1       -0.2786
     16 C         139.6075  139.3924  164.9855 C.3     1  UNL1        0.1350
     17 C         141.6323  140.6772  165.9854 C.ar    1  UNL1        0.1460
     18 N         142.3521  141.2462  167.1719 N.ar    1  UNL1       -0.2284
     19 C         141.7670  141.0997  168.5454 C.ar    1  UNL1        0.0835
     20 O         143.9729  141.2633  160.4919 O.3     1  UNL1       -0.4791
     21 C         143.7053  140.2205  159.4474 C.3     1  UNL1        0.1687
     22 C         143.1051  138.9029  159.8397 C.3     1  UNL1        0.0609
     23 C         142.8374  137.8601  158.7952 C.3     1  UNL1        0.0758
     24 N         143.1699  138.1349  157.3585 N.3     1  UNL1       -0.2737
     25 C         143.7700  139.4524  156.9664 C.3     1  UNL1        0.0758
     26 C         144.0377  140.4952  158.0108 C.3     1  UNL1        0.0609
     27 C         142.9022  137.0921  156.3141 C.3     1  UNL1        0.0575
     28 C         143.7551  136.1816  155.4812 C.3     1  UNL1        0.0160
     29 C         142.5236  135.6173  154.8370 C.3     1  UNL1        0.0028
     30 C         141.6708  136.5278  155.6698 C.3     1  UNL1        0.0160
@<TRIPOS>BOND
     1     7     8    1
     2     8     9   ar
     3     9    10   ar
     4    10    11   ar
     5    11    12   ar
     6    12    13   ar
     7    13    14    2
     8    13    15   ar
     9    15    16    1
    10    15    17   ar
    11    17     1    1
    12     1     2   ar
    13     2     3   ar
    14     3     4   ar
    15     4    20    1
    16    20    21    1
    17    21    22    1
    18    22    23    1
    19    23    24    1
    20    24    27    1
    21    27    28    1
    22    28    29    1
    23    29    30    1
    24    24    25    1
    25    25    26    1
    26     4     5   ar
    27     5     6   ar
    28    17    18   ar
    29    18    19   ar
    30    19     8   ar
    31    19    12   ar
    32     6     1   ar
    33    26    21    1
    34    30    27    1
@<TRIPOS>MOLECULE
*****
 30 34 0 0 0
SMALL
GASTEIGER

@<TRIPOS>ATOM
      1 C         141.0109  143.1560  164.4839 C.ar    1  UNL1        0.0344
      2 C         139.8002  142.7685  163.6876 C.ar    1  UNL1        0.0061
      3 C         139.4147  143.5622  162.4746 C.ar    1  UNL1        0.0370
      4 C         140.2400  144.7434  162.0579 C.ar    1  UNL1        0.1384
      5 C         141.4507  145.1309  162.8542 C.ar    1  UNL1        0.0370
      6 C         141.8361  144.3372  164.0672 C.ar    1  UNL1        0.0061
      7 C         140.3625  143.8841  169.8037 C.3     1  UNL1        0.0326
      8 C         141.0926  142.5831  169.6478 C.ar    1  UNL1       -0.0040
      9 C         141.4780  141.7893  170.8607 C.ar    1  UNL1       -0.0028
     10 C         142.2081  140.4883  170.7048 C.ar    1  UNL1       -0.0001
     11 C         142.5527  139.9810  169.3360 C.ar    1  UNL1        0.0062
     12 C         142.1672  140.7747  168.1230 C.ar    1  UNL1        0.0735
     13 C         142.5119  140.2675  166.7540 C.ar    1  UNL1        0.2634
     14 O         143.2419  138.9664  166.5981 O.2     1  UNL1       -0.2669
     15 N         142.1264  141.0612  165.5411 N.ar    1  UNL1       -0.2786
     16 C         142.4710  140.5540  164.1721 C.3     1  UNL1        0.1350
     17 C         141.3963  142.3623  165.6970 C.ar    1  UNL1        0.1460
     18 N         141.0517  142.8695  167.0658 N.ar    1  UNL1       -0.2284
     19 C         141.4372  142.0758  168.2789 C.ar    1  UNL1        0.0835
     20 O         139.8545  145.5372  160.8448 O.3     1  UNL1       -0.4791
     21 C         140.5320  145.2772  159.5321 C.3     1  UNL1        0.1687
     22 C         140.0546  145.9718  158.2912 C.3     1  UNL1        0.0609
     23 C         140.7321  145.7118  156.9784 C.3     1  UNL1        0.0758
     24 N         141.8869  144.7572  156.9065 N.3     1  UNL1       -0.2737
     25 C         142.3642  144.0626  158.1473 C.3     1  UNL1        0.0758
     26 C         141.6867  144.3226  159.4601 C.3     1  UNL1        0.0609
     27 C         142.5644  144.4972  155.5937 C.3     1  UNL1        0.0575
     28 C         143.5452  143.4805  155.0892 C.3     1  UNL1        0.0160
     29 C         143.5224  144.1295  153.7371 C.3     1  UNL1        0.0028
     30 C         142.5417  145.1461  154.2415 C.3     1  UNL1        0.0160
@<TRIPOS>BOND
     1     7     8    1
     2     8     9   ar
     3     9    10   ar
     4    10    11   ar
     5    11    12   ar
     6    12    13   ar
     7    13    14    2
     8    13    15   ar
     9    15    16    1
    10    15    17   ar
    11    17     1    1
    12     1     2   ar
    13     2     3   ar
    14     3     4   ar
    15     4    20    1
    16    20    21    1
    17    21    22    1
    18    22    23    1
    19    23    24    1
    20    24    27    1
    21    27    28    1
    22    28    29    1
    23    29    30    1
    24    24    25    1
    25    25    26    1
    26     4     5   ar
    27     5     6   ar
    28    17    18   ar
    29    18    19   ar
    30    19     8   ar
    31    19    12   ar
    32     6     1   ar
    33    26    21    1
    34    30    27    1
