@<TRIPOS>MOLECULE
*****
 24 25 0 0 0
SMALL
GASTEIGER

@<TRIPOS>ATOM
      1 N         139.3020  142.6072  164.6049 N.3     1  UNL1       -0.2727
      2 C         138.1760  143.0704  163.7288 C.3     1  UNL1        0.0721
      3 C         138.3623  144.2602  162.8344 C.3     1  UNL1        0.0191
      4 C         139.6745  144.9866  162.8162 C.3     1  UNL1        0.0224
      5 C         140.8004  144.5234  163.6923 C.3     1  UNL1        0.0191
      6 C         140.6142  143.3336  164.5866 C.3     1  UNL1        0.0721
      7 C         139.1157  141.4175  165.4993 C.3     1  UNL1        0.0721
      8 C         138.1153  140.3589  165.1407 C.3     1  UNL1        0.0173
      9 C         138.1045  138.8707  166.6523 C.3     1  UNL1        0.0000
     10 C         138.5000  138.9105  165.2059 C.3     1  UNL1        0.0013
     11 C         138.8954  138.9504  163.7596 C.3     1  UNL1        0.0000
     12 C         138.8846  137.4622  165.2712 C.3     1  UNL1        0.0000
     13 C         139.8607  146.1763  161.9218 C.3     1  UNL1        0.0897
     14 N         139.6281  146.0486  160.4455 N.am    1  UNL1       -0.3009
     15 C         140.6565  145.3842  159.5789 C.2     1  UNL1        0.2459
     16 O         141.9175  144.8476  160.1887 O.2     1  UNL1       -0.2701
     17 H         138.8004  146.4008  160.0453 H       1  UNL1        0.1497
     18 C         140.4239  145.2564  158.1026 C.ar    1  UNL1        0.0542
     19 C         140.6512  143.9410  157.4186 C.ar    1  UNL1        0.0046
     20 C         140.4186  143.8132  155.9422 C.ar    1  UNL1        0.0010
     21 C         139.9586  145.0009  155.1499 C.ar    1  UNL1        0.0114
     22 C         139.7312  146.3164  155.8340 C.ar    1  UNL1        0.0578
     23 CL        139.2712  147.5041  155.0417 Cl      1  UNL1       -0.0822
     24 C         139.9639  146.4441  157.3103 C.ar    1  UNL1        0.0159
@<TRIPOS>BOND
     1     9    10    1
     2    10    11    1
     3    10    12    1
     4    10     8    1
     5     8     7    1
     6     7     1    1
     7     1     2    1
     8     2     3    1
     9     3     4    1
    10     4    13    1
    11    13    14    1
    12    14    15   am
    13    15    16    2
    14    15    18    1
    15    18    19   ar
    16    19    20   ar
    17    20    21   ar
    18    21    22   ar
    19    22    23    1
    20    22    24   ar
    21     4     5    1
    22     5     6    1
    23     6     1    1
    24    24    18   ar
    25    14    17    1
@<TRIPOS>MOLECULE
*****
 24 25 0 0 0
SMALL
GASTEIGER

@<TRIPOS>ATOM
      1 N         139.4795  140.3034  167.7916 N.3     1  UNL1       -0.2727
      2 C         138.5335  139.2380  167.3225 C.3     1  UNL1        0.0721
      3 C         138.0906  139.2062  165.8897 C.3     1  UNL1        0.0191
      4 C         138.5938  140.2397  164.9260 C.3     1  UNL1        0.0224
      5 C         139.5398  141.3050  165.3952 C.3     1  UNL1        0.0191
      6 C         139.9826  141.3368  166.8280 C.3     1  UNL1        0.0721
      7 C         139.9223  140.3352  169.2244 C.3     1  UNL1        0.0721
      8 C         139.9402  141.6336  169.9752 C.3     1  UNL1        0.0173
      9 C         140.5265  143.6624  169.7744 C.3     1  UNL1        0.0000
     10 C         141.2267  142.3871  170.1398 C.3     1  UNL1        0.0013
     11 C         141.9269  141.1119  170.5052 C.3     1  UNL1        0.0000
     12 C         142.5132  143.1407  170.3044 C.3     1  UNL1        0.0000
     13 C         138.1509  140.2078  163.4933 C.3     1  UNL1        0.0897
     14 N         139.1553  139.9799  162.4027 N.am    1  UNL1       -0.3009
     15 C         139.6481  138.5927  162.1150 C.2     1  UNL1        0.2459
     16 O         139.1366  137.4334  162.9177 O.2     1  UNL1       -0.2701
     17 H         139.4910  140.7407  161.8758 H       1  UNL1        0.1497
     18 C         140.6525  138.3648  161.0244 C.ar    1  UNL1        0.0542
     19 C         142.0214  137.8521  161.3607 C.ar    1  UNL1        0.0046
     20 C         143.0258  137.6242  160.2700 C.ar    1  UNL1        0.0010
     21 C         142.6612  137.9090  158.8432 C.ar    1  UNL1        0.0114
     22 C         141.2921  138.4216  158.5069 C.ar    1  UNL1        0.0578
     23 CL        140.9275  138.7064  157.0801 Cl      1  UNL1       -0.0822
     24 C         140.2879  138.6495  159.5975 C.ar    1  UNL1        0.0159
@<TRIPOS>BOND
     1     9    10    1
     2    10    11    1
     3    10    12    1
     4    10     8    1
     5     8     7    1
     6     7     1    1
     7     1     2    1
     8     2     3    1
     9     3     4    1
    10     4    13    1
    11    13    14    1
    12    14    15   am
    13    15    16    2
    14    15    18    1
    15    18    19   ar
    16    19    20   ar
    17    20    21   ar
    18    21    22   ar
    19    22    23    1
    20    22    24   ar
    21     4     5    1
    22     5     6    1
    23     6     1    1
    24    24    18   ar
    25    14    17    1
@<TRIPOS>MOLECULE
*****
 24 25 0 0 0
SMALL
GASTEIGER

@<TRIPOS>ATOM
      1 N         139.9416  142.9048  165.1214 N.3     1  UNL1       -0.2727
      2 C         141.2225  143.6148  164.7971 C.3     1  UNL1        0.0721
      3 C         141.2310  144.7214  163.7845 C.3     1  UNL1        0.0191
      4 C         139.9587  145.1179  163.0962 C.3     1  UNL1        0.0224
      5 C         138.6778  144.4079  163.4204 C.3     1  UNL1        0.0191
      6 C         138.6693  143.3013  164.4330 C.3     1  UNL1        0.0721
      7 C         139.9331  141.7982  166.1340 C.3     1  UNL1        0.0721
      8 C         140.7367  141.9282  167.3938 C.3     1  UNL1        0.0173
      9 C         139.7572  140.2227  168.1888 C.3     1  UNL1        0.0000
     10 C         140.1202  141.5793  168.7160 C.3     1  UNL1        0.0013
     11 C         140.4833  142.9358  169.2433 C.3     1  UNL1        0.0000
     12 C         139.5038  141.2303  170.0383 C.3     1  UNL1        0.0000
     13 C         139.9672  146.2245  162.0835 C.3     1  UNL1        0.0897
     14 N         139.5912  145.9409  160.6594 N.am    1  UNL1       -0.3009
     15 C         140.5867  145.3083  159.7326 C.2     1  UNL1        0.2459
     16 O         141.9581  144.9594  160.2299 O.2     1  UNL1       -0.2701
     17 H         138.6911  146.1699  160.3330 H       1  UNL1        0.1497
     18 C         140.2106  145.0247  158.3084 C.ar    1  UNL1        0.0542
     19 C         140.4240  146.0699  157.2540 C.ar    1  UNL1        0.0046
     20 C         140.0479  145.7863  155.8298 C.ar    1  UNL1        0.0010
     21 C         139.4585  144.4574  155.4602 C.ar    1  UNL1        0.0114
     22 C         139.2451  143.4122  156.5147 C.ar    1  UNL1        0.0578
     23 CL        138.6556  142.0833  156.1451 Cl      1  UNL1       -0.0822
     24 C         139.6212  143.6958  157.9388 C.ar    1  UNL1        0.0159
@<TRIPOS>BOND
     1     9    10    1
     2    10    11    1
     3    10    12    1
     4    10     8    1
     5     8     7    1
     6     7     1    1
     7     1     2    1
     8     2     3    1
     9     3     4    1
    10     4    13    1
    11    13    14    1
    12    14    15   am
    13    15    16    2
    14    15    18    1
    15    18    19   ar
    16    19    20   ar
    17    20    21   ar
    18    21    22   ar
    19    22    23    1
    20    22    24   ar
    21     4     5    1
    22     5     6    1
    23     6     1    1
    24    24    18   ar
    25    14    17    1
@<TRIPOS>MOLECULE
*****
 24 25 0 0 0
SMALL
GASTEIGER

@<TRIPOS>ATOM
      1 N         139.8687  140.0382  167.2870 N.3     1  UNL1       -0.2727
      2 C         140.8648  139.9040  166.1736 C.3     1  UNL1        0.0721
      3 C         140.5440  139.0566  164.9782 C.3     1  UNL1        0.0191
      4 C         139.2269  138.3435  164.8962 C.3     1  UNL1        0.0224
      5 C         138.2307  138.4778  166.0095 C.3     1  UNL1        0.0191
      6 C         138.5516  139.3251  167.2049 C.3     1  UNL1        0.0721
      7 C         140.1896  140.8856  168.4824 C.3     1  UNL1        0.0721
      8 C         140.8672  142.2115  168.3018 C.3     1  UNL1        0.0173
      9 C         142.9333  142.0368  168.7499 C.3     1  UNL1        0.0000
     10 C         141.7686  142.7456  169.3752 C.3     1  UNL1        0.0013
     11 C         140.6039  143.4544  170.0005 C.3     1  UNL1        0.0000
     12 C         142.6699  143.2797  170.4486 C.3     1  UNL1        0.0000
     13 C         138.9060  137.4962  163.7007 C.3     1  UNL1        0.0897
     14 N         138.6006  138.1437  162.3826 N.am    1  UNL1       -0.3009
     15 C         139.6518  138.2020  161.3142 C.2     1  UNL1        0.2459
     16 O         141.0084  137.6127  161.5638 O.2     1  UNL1       -0.2701
     17 H         137.7102  138.5305  162.2188 H       1  UNL1        0.1497
     18 C         139.3463  138.8495  159.9961 C.ar    1  UNL1        0.0542
     19 C         138.2941  139.9151  159.9099 C.ar    1  UNL1        0.0046
     20 C         137.9887  140.5626  158.5917 C.ar    1  UNL1        0.0010
     21 C         138.7354  140.1446  157.3598 C.ar    1  UNL1        0.0114
     22 C         139.7877  139.0790  157.4461 C.ar    1  UNL1        0.0578
     23 CL        140.5345  138.6610  156.2142 Cl      1  UNL1       -0.0822
     24 C         140.0931  138.4315  158.7642 C.ar    1  UNL1        0.0159
@<TRIPOS>BOND
     1     9    10    1
     2    10    11    1
     3    10    12    1
     4    10     8    1
     5     8     7    1
     6     7     1    1
     7     1     2    1
     8     2     3    1
     9     3     4    1
    10     4    13    1
    11    13    14    1
    12    14    15   am
    13    15    16    2
    14    15    18    1
    15    18    19   ar
    16    19    20   ar
    17    20    21   ar
    18    21    22   ar
    19    22    23    1
    20    22    24   ar
    21     4     5    1
    22     5     6    1
    23     6     1    1
    24    24    18   ar
    25    14    17    1
@<TRIPOS>MOLECULE
*****
 24 25 0 0 0
SMALL
GASTEIGER

@<TRIPOS>ATOM
      1 N         138.7835  140.5944  165.1172 N.3     1  UNL1       -0.2727
      2 C         139.7869  141.6453  165.4894 C.3     1  UNL1        0.0721
      3 C         139.7679  142.9778  164.8008 C.3     1  UNL1        0.0191
      4 C         138.7454  143.2594  163.7401 C.3     1  UNL1        0.0224
      5 C         137.7419  142.2085  163.3680 C.3     1  UNL1        0.0191
      6 C         137.7610  140.8760  164.0565 C.3     1  UNL1        0.0721
      7 C         138.8025  139.2619  165.8057 C.3     1  UNL1        0.0721
      8 C         138.8089  137.9993  164.9959 C.3     1  UNL1        0.0173
      9 C         140.9272  137.8863  165.0090 C.3     1  UNL1        0.0000
     10 C         139.8660  137.7818  163.9541 C.3     1  UNL1        0.0013
     11 C         138.8047  137.6773  162.8992 C.3     1  UNL1        0.0000
     12 C         140.9230  137.5643  162.9123 C.3     1  UNL1        0.0000
     13 C         138.7263  144.5919  163.0516 C.3     1  UNL1        0.0897
     14 N         139.1332  144.6980  161.6118 N.am    1  UNL1       -0.3009
     15 C         140.5868  144.7467  161.2448 C.2     1  UNL1        0.2459
     16 O         141.6335  144.6894  162.3176 O.2     1  UNL1       -0.2701
     17 H         138.4462  144.7357  160.9076 H       1  UNL1        0.1497
     18 C         140.9936  144.8529  159.8048 C.ar    1  UNL1        0.0542
     19 C         142.1799  144.0849  159.3021 C.ar    1  UNL1        0.0046
     20 C         142.5868  144.1910  157.8622 C.ar    1  UNL1        0.0010
     21 C         141.8072  145.0651  156.9251 C.ar    1  UNL1        0.0114
     22 C         140.6208  145.8331  157.4279 C.ar    1  UNL1        0.0578
     23 CL        139.8412  146.7072  156.4907 Cl      1  UNL1       -0.0822
     24 C         140.2140  145.7270  158.8677 C.ar    1  UNL1        0.0159
@<TRIPOS>BOND
     1     9    10    1
     2    10    11    1
     3    10    12    1
     4    10     8    1
     5     8     7    1
     6     7     1    1
     7     1     2    1
     8     2     3    1
     9     3     4    1
    10     4    13    1
    11    13    14    1
    12    14    15   am
    13    15    16    2
    14    15    18    1
    15    18    19   ar
    16    19    20   ar
    17    20    21   ar
    18    21    22   ar
    19    22    23    1
    20    22    24   ar
    21     4     5    1
    22     5     6    1
    23     6     1    1
    24    24    18   ar
    25    14    17    1
@<TRIPOS>MOLECULE
*****
 24 25 0 0 0
SMALL
GASTEIGER

@<TRIPOS>ATOM
      1 N         141.5974  142.6884  165.5909 N.3     1  UNL1       -0.2727
      2 C         140.1452  143.0437  165.4701 C.3     1  UNL1        0.0721
      3 C         139.7062  144.0778  164.4761 C.3     1  UNL1        0.0191
      4 C         140.7195  144.7566  163.6030 C.3     1  UNL1        0.0224
      5 C         142.1717  144.4012  163.7237 C.3     1  UNL1        0.0191
      6 C         142.6107  143.3671  164.7177 C.3     1  UNL1        0.0721
      7 C         142.0364  141.6543  166.5848 C.3     1  UNL1        0.0721
      8 C         142.9831  142.0274  167.6868 C.3     1  UNL1        0.0173
      9 C         142.5729  140.0219  168.2431 C.3     1  UNL1        0.0000
     10 C         142.9653  141.2680  168.9802 C.3     1  UNL1        0.0013
     11 C         143.3578  142.5140  169.7173 C.3     1  UNL1        0.0000
     12 C         142.9475  140.5085  170.2736 C.3     1  UNL1        0.0000
     13 C         140.2805  145.7907  162.6090 C.3     1  UNL1        0.0897
     14 N         140.8746  145.8070  161.2318 N.am    1  UNL1       -0.3009
     15 C         140.3050  144.9271  160.1588 C.2     1  UNL1        0.2459
     16 O         139.1413  144.0309  160.4630 O.2     1  UNL1       -0.2701
     17 H         141.6384  146.3952  161.0321 H       1  UNL1        0.1497
     18 C         140.8992  144.9435  158.7815 C.ar    1  UNL1        0.0542
     19 C         142.0046  143.9925  158.4302 C.ar    1  UNL1        0.0046
     20 C         142.5988  144.0089  157.0530 C.ar    1  UNL1        0.0010
     21 C         142.0874  144.9763  156.0270 C.ar    1  UNL1        0.0114
     22 C         140.9819  145.9274  156.3784 C.ar    1  UNL1        0.0578
     23 CL        140.4705  146.8948  155.3524 Cl      1  UNL1       -0.0822
     24 C         140.3878  145.9109  157.7556 C.ar    1  UNL1        0.0159
@<TRIPOS>BOND
     1     9    10    1
     2    10    11    1
     3    10    12    1
     4    10     8    1
     5     8     7    1
     6     7     1    1
     7     1     2    1
     8     2     3    1
     9     3     4    1
    10     4    13    1
    11    13    14    1
    12    14    15   am
    13    15    16    2
    14    15    18    1
    15    18    19   ar
    16    19    20   ar
    17    20    21   ar
    18    21    22   ar
    19    22    23    1
    20    22    24   ar
    21     4     5    1
    22     5     6    1
    23     6     1    1
    24    24    18   ar
    25    14    17    1
@<TRIPOS>MOLECULE
*****
 24 25 0 0 0
SMALL
GASTEIGER

@<TRIPOS>ATOM
      1 N         143.2576  138.3656  170.0992 N.3     1  UNL1       -0.2727
      2 C         143.2562  139.6469  170.8791 C.3     1  UNL1        0.0721
      3 C         142.9998  140.9496  170.1810 C.3     1  UNL1        0.0191
      4 C         142.7447  140.9710  168.7030 C.3     1  UNL1        0.0224
      5 C         142.7461  139.6897  167.9231 C.3     1  UNL1        0.0191
      6 C         143.0025  138.3870  168.6212 C.3     1  UNL1        0.0721
      7 C         143.5140  137.0630  170.7973 C.3     1  UNL1        0.0721
      8 C         144.8516  136.3957  170.6724 C.3     1  UNL1        0.0173
      9 C         144.4378  135.1403  172.3315 C.3     1  UNL1        0.0000
     10 C         145.6022  135.9838  171.9040 C.3     1  UNL1        0.0013
     11 C         146.7666  136.8273  171.4765 C.3     1  UNL1        0.0000
     12 C         146.3528  135.5719  173.1356 C.3     1  UNL1        0.0000
     13 C         142.4883  142.2736  168.0050 C.3     1  UNL1        0.0897
     14 N         141.2609  142.4425  167.1595 N.am    1  UNL1       -0.3009
     15 C         141.3855  142.9224  165.7438 C.2     1  UNL1        0.2459
     16 O         142.7376  143.2334  165.1736 O.2     1  UNL1       -0.2701
     17 H         140.3734  142.2385  167.5338 H       1  UNL1        0.1497
     18 C         140.1580  143.0913  164.8983 C.ar    1  UNL1        0.0542
     19 C         139.7035  144.4647  164.5019 C.ar    1  UNL1        0.0046
     20 C         138.4760  144.6336  163.6564 C.ar    1  UNL1        0.0010
     21 C         137.7030  143.4291  163.2074 C.ar    1  UNL1        0.0114
     22 C         138.1575  142.0557  163.6039 C.ar    1  UNL1        0.0578
     23 CL        137.3845  140.8511  163.1550 Cl      1  UNL1       -0.0822
     24 C         139.3850  141.8868  164.4494 C.ar    1  UNL1        0.0159
@<TRIPOS>BOND
     1     9    10    1
     2    10    11    1
     3    10    12    1
     4    10     8    1
     5     8     7    1
     6     7     1    1
     7     1     2    1
     8     2     3    1
     9     3     4    1
    10     4    13    1
    11    13    14    1
    12    14    15   am
    13    15    16    2
    14    15    18    1
    15    18    19   ar
    16    19    20   ar
    17    20    21   ar
    18    21    22   ar
    19    22    23    1
    20    22    24   ar
    21     4     5    1
    22     5     6    1
    23     6     1    1
    24    24    18   ar
    25    14    17    1
@<TRIPOS>MOLECULE
*****
 24 25 0 0 0
SMALL
GASTEIGER

@<TRIPOS>ATOM
      1 N         138.5060  141.3208  163.7825 N.3     1  UNL1       -0.2727
      2 C         137.9155  142.5872  164.3278 C.3     1  UNL1        0.0721
      3 C         138.3199  143.9120  163.7521 C.3     1  UNL1        0.0191
      4 C         139.3147  143.9703  162.6310 C.3     1  UNL1        0.0224
      5 C         139.9051  142.7039  162.0856 C.3     1  UNL1        0.0191
      6 C         139.5008  141.3791  162.6614 C.3     1  UNL1        0.0721
      7 C         138.1016  139.9960  164.3582 C.3     1  UNL1        0.0721
      8 C         139.0559  139.2342  165.2294 C.3     1  UNL1        0.0173
      9 C         137.8509  138.8228  166.9261 C.3     1  UNL1        0.0000
     10 C         139.1453  139.5445  166.6942 C.3     1  UNL1        0.0013
     11 C         140.4397  140.2661  166.4623 C.3     1  UNL1        0.0000
     12 C         139.2347  139.8547  168.1590 C.3     1  UNL1        0.0000
     13 C         139.7190  145.2951  162.0552 C.3     1  UNL1        0.0897
     14 N         139.7469  145.4895  160.5682 N.am    1  UNL1       -0.3009
     15 C         141.0056  145.2159  159.7995 C.2     1  UNL1        0.2459
     16 O         142.2364  144.7478  160.5179 O.2     1  UNL1       -0.2701
     17 H         138.9391  145.7967  160.0966 H       1  UNL1        0.1497
     18 C         141.0335  145.4103  158.3123 C.ar    1  UNL1        0.0542
     19 C         140.0129  146.2887  157.6515 C.ar    1  UNL1        0.0046
     20 C         140.0408  146.4831  156.1644 C.ar    1  UNL1        0.0010
     21 C         141.0893  145.7991  155.3381 C.ar    1  UNL1        0.0114
     22 C         142.1099  144.9206  155.9990 C.ar    1  UNL1        0.0578
     23 CL        143.1584  144.2366  155.1728 Cl      1  UNL1       -0.0822
     24 C         142.0820  144.7262  157.4861 C.ar    1  UNL1        0.0159
@<TRIPOS>BOND
     1     9    10    1
     2    10    11    1
     3    10    12    1
     4    10     8    1
     5     8     7    1
     6     7     1    1
     7     1     2    1
     8     2     3    1
     9     3     4    1
    10     4    13    1
    11    13    14    1
    12    14    15   am
    13    15    16    2
    14    15    18    1
    15    18    19   ar
    16    19    20   ar
    17    20    21   ar
    18    21    22   ar
    19    22    23    1
    20    22    24   ar
    21     4     5    1
    22     5     6    1
    23     6     1    1
    24    24    18   ar
    25    14    17    1
@<TRIPOS>MOLECULE
*****
 24 25 0 0 0
SMALL
GASTEIGER

@<TRIPOS>ATOM
      1 N         139.6431  140.4350  167.3919 N.3     1  UNL1       -0.2727
      2 C         139.9698  141.6543  166.5817 C.3     1  UNL1        0.0721
      3 C         139.3681  141.8329  165.2193 C.3     1  UNL1        0.0191
      4 C         138.4395  140.7923  164.6673 C.3     1  UNL1        0.0224
      5 C         138.1127  139.5730  165.4775 C.3     1  UNL1        0.0191
      6 C         138.7145  139.3944  166.8399 C.3     1  UNL1        0.0721
      7 C         140.2448  140.2564  168.7543 C.3     1  UNL1        0.0721
      8 C         140.1495  141.3589  169.7668 C.3     1  UNL1        0.0173
      9 C         142.1879  141.0422  170.2611 C.3     1  UNL1        0.0000
     10 C         141.3301  142.2489  170.0200 C.3     1  UNL1        0.0013
     11 C         140.4723  143.4555  169.7789 C.3     1  UNL1        0.0000
     12 C         142.5108  143.1388  170.2732 C.3     1  UNL1        0.0000
     13 C         137.8377  140.9709  163.3049 C.3     1  UNL1        0.0897
     14 N         138.6723  141.5100  162.1812 N.am    1  UNL1       -0.3009
     15 C         138.5679  142.9559  161.7961 C.2     1  UNL1        0.2459
     16 O         137.6290  143.8629  162.5349 O.2     1  UNL1       -0.2701
     17 H         139.2886  140.9147  161.6963 H       1  UNL1        0.1497
     18 C         139.4026  143.4950  160.6723 C.ar    1  UNL1        0.0542
     19 C         140.3655  144.6170  160.9245 C.ar    1  UNL1        0.0046
     20 C         141.2001  145.1561  159.8007 C.ar    1  UNL1        0.0010
     21 C         141.0718  144.5729  158.4247 C.ar    1  UNL1        0.0114
     22 C         140.1088  143.4508  158.1725 C.ar    1  UNL1        0.0578
     23 CL        139.9805  142.8676  156.7964 Cl      1  UNL1       -0.0822
     24 C         139.2742  142.9118  159.2963 C.ar    1  UNL1        0.0159
@<TRIPOS>BOND
     1     9    10    1
     2    10    11    1
     3    10    12    1
     4    10     8    1
     5     8     7    1
     6     7     1    1
     7     1     2    1
     8     2     3    1
     9     3     4    1
    10     4    13    1
    11    13    14    1
    12    14    15   am
    13    15    16    2
    14    15    18    1
    15    18    19   ar
    16    19    20   ar
    17    20    21   ar
    18    21    22   ar
    19    22    23    1
    20    22    24   ar
    21     4     5    1
    22     5     6    1
    23     6     1    1
    24    24    18   ar
    25    14    17    1
