@<TRIPOS>MOLECULE
*****
 34 38 0 0 0
SMALL
GASTEIGER

@<TRIPOS>ATOM
      1 N         138.1918  140.3245  163.3070 N.3     1  UNL1       -0.2724
      2 C         138.2406  138.9510  162.7061 C.3     1  UNL1        0.0724
      3 C         139.1631  138.1125  163.5404 C.3     1  UNL1        0.0214
      4 C         140.1171  137.5361  164.5442 C.3     1  UNL1        0.0072
      5 C         139.6844  138.9679  164.6569 C.3     1  UNL1        0.0350
      6 C         139.0841  140.3349  164.5126 C.3     1  UNL1        0.0761
      7 C         140.4863  139.2777  165.8861 C.ar    1  UNL1       -0.0214
      8 C         139.8073  139.8261  167.1060 C.ar    1  UNL1       -0.0034
      9 C         140.6092  140.1359  168.3354 C.ar    1  UNL1        0.0146
     10 C         142.0901  139.8973  168.3447 C.ar    1  UNL1        0.1228
     11 C         142.7691  139.3489  167.1247 C.ar    1  UNL1        0.0146
     12 C         141.9672  139.0391  165.8955 C.ar    1  UNL1       -0.0034
     13 S         142.8919  140.2071  169.5739 S.3     1  UNL1        0.3126
     14 F         142.9184  141.1464  168.4047 F       1  UNL1       -0.0934
     15 F         143.7202  141.4562  169.6339 F       1  UNL1       -0.0934
     16 F         142.8655  139.2678  170.7431 F       1  UNL1       -0.0934
     17 F         143.6938  140.5169  170.8031 F       1  UNL1       -0.0934
     18 F         142.0636  138.9579  169.5138 F       1  UNL1       -0.0934
     19 C         137.3912  141.4840  162.7925 C.3     1  UNL1        0.0730
     20 C         137.2750  142.7365  163.6096 C.3     1  UNL1        0.0294
     21 C         137.7400  144.0461  163.0451 C.3     1  UNL1        0.0666
     22 S         138.9225  144.7450  163.6479 S.3     1  UNL1       -0.0756
     23 C         142.1697  142.7154  164.2817 C.ar    1  UNL1        0.2029
     24 N         141.5584  142.7196  165.6515 N.ar    1  UNL1       -0.1250
     25 N         140.2677  143.4803  165.5808 N.ar    1  UNL1       -0.1220
     26 C         140.0812  143.9464  164.1673 C.ar    1  UNL1        0.1933
     27 N         141.2567  143.4736  163.3645 N.ar    1  UNL1       -0.2860
     28 C         141.4799  143.7165  161.9011 C.3     1  UNL1        0.1341
     29 C         142.5096  140.0944  162.3674 C.3     1  UNL1        0.0556
     30 C         143.6226  140.8622  163.0170 C.ar    1  UNL1        0.1001
     31 N         145.0872  140.5600  162.9006 N.ar    1  UNL1       -0.2085
     32 C         145.8361  141.5780  163.7085 C.ar    1  UNL1        0.2849
     33 O         144.8344  142.5093  164.3242 O.2     1  UNL1       -0.4283
     34 C         143.4664  142.0669  163.8968 C.ar    1  UNL1        0.1964
@<TRIPOS>BOND
     1    29    30    1
     2    30    31   ar
     3    31    32   ar
     4    32    33   ar
     5    33    34   ar
     6    34    23    1
     7    23    24   ar
     8    24    25   ar
     9    25    26   ar
    10    26    22    1
    11    22    21    1
    12    21    20    1
    13    20    19    1
    14    19     1    1
    15     1     2    1
    16     2     3    1
    17     3     4    1
    18     4     5    1
    19     5     7    1
    20     7     8   ar
    21     8     9   ar
    22     9    10   ar
    23    10    13    1
    24    13    14    1
    25    13    15    1
    26    13    16    1
    27    13    17    1
    28    13    18    1
    29    10    11   ar
    30    11    12   ar
    31     5     6    1
    32    26    27   ar
    33    27    28    1
    34    34    30   ar
    35    27    23   ar
    36     6     1    1
    37     5     3    1
    38    12     7   ar
@<TRIPOS>MOLECULE
*****
 34 38 0 0 0
SMALL
GASTEIGER

@<TRIPOS>ATOM
      1 N         144.3643  142.6330  163.2910 N.3     1  UNL1       -0.2724
      2 C         145.6165  141.8134  163.3931 C.3     1  UNL1        0.0724
      3 C         145.2534  140.4840  163.9853 C.3     1  UNL1        0.0214
      4 C         144.5999  139.2730  164.5823 C.3     1  UNL1        0.0072
      5 C         143.7768  140.4819  164.2493 C.3     1  UNL1        0.0350
      6 C         143.2274  141.8101  163.8202 C.3     1  UNL1        0.0761
      7 C         142.4677  139.9117  164.7089 C.ar    1  UNL1       -0.0214
      8 C         141.6828  140.6060  165.7821 C.ar    1  UNL1       -0.0034
      9 C         140.3736  140.0358  166.2417 C.ar    1  UNL1        0.0146
     10 C         139.8495  138.7714  165.6281 C.ar    1  UNL1        0.1228
     11 C         140.6346  138.0771  164.5548 C.ar    1  UNL1        0.0146
     12 C         141.9437  138.6473  164.0953 C.ar    1  UNL1       -0.0034
     13 S         138.5405  138.2012  166.0876 S.3     1  UNL1        0.3126
     14 F         139.5225  137.3324  165.3591 F       1  UNL1       -0.0934
     15 F         138.2134  136.7622  165.8186 F       1  UNL1       -0.0934
     16 F         137.5584  139.0700  166.8162 F       1  UNL1       -0.0934
     17 F         137.2314  137.6311  166.5472 F       1  UNL1       -0.0934
     18 F         138.8676  139.6403  166.3566 F       1  UNL1       -0.0934
     19 C         144.2664  144.0302  162.7541 C.3     1  UNL1        0.0730
     20 C         143.6958  145.1235  163.6079 C.3     1  UNL1        0.0294
     21 C         142.2251  145.1563  163.9007 C.3     1  UNL1        0.0666
     22 S         141.2591  145.5976  162.8413 S.3     1  UNL1       -0.0756
     23 C         138.7674  142.9658  161.4523 C.ar    1  UNL1        0.2029
     24 N         137.8701  143.7723  162.3436 N.ar    1  UNL1       -0.1250
     25 N         138.6943  144.8563  162.9725 N.ar    1  UNL1       -0.1220
     26 C         140.1009  144.7198  162.4698 C.ar    1  UNL1        0.1933
     27 N         140.1460  143.5514  161.5302 N.ar    1  UNL1       -0.2860
     28 C         141.3573  143.0557  160.7973 C.3     1  UNL1        0.1341
     29 C         137.9079  140.0342  162.5999 C.3     1  UNL1        0.0556
     30 C         137.9627  140.4341  161.1552 C.ar    1  UNL1        0.1001
     31 N         137.6320  139.5567  159.9844 N.ar    1  UNL1       -0.2085
     32 C         137.8228  140.3619  158.7333 C.ar    1  UNL1        0.2849
     33 O         138.2712  141.7369  159.1308 O.2     1  UNL1       -0.4283
     34 C         138.3577  141.7815  160.6277 C.ar    1  UNL1        0.1964
@<TRIPOS>BOND
     1    29    30    1
     2    30    31   ar
     3    31    32   ar
     4    32    33   ar
     5    33    34   ar
     6    34    23    1
     7    23    24   ar
     8    24    25   ar
     9    25    26   ar
    10    26    22    1
    11    22    21    1
    12    21    20    1
    13    20    19    1
    14    19     1    1
    15     1     2    1
    16     2     3    1
    17     3     4    1
    18     4     5    1
    19     5     7    1
    20     7     8   ar
    21     8     9   ar
    22     9    10   ar
    23    10    13    1
    24    13    14    1
    25    13    15    1
    26    13    16    1
    27    13    17    1
    28    13    18    1
    29    10    11   ar
    30    11    12   ar
    31     5     6    1
    32    26    27   ar
    33    27    28    1
    34    34    30   ar
    35    27    23   ar
    36     6     1    1
    37     5     3    1
    38    12     7   ar
@<TRIPOS>MOLECULE
*****
 34 38 0 0 0
SMALL
GASTEIGER

@<TRIPOS>ATOM
      1 N         143.8374  140.7952  161.7373 N.3     1  UNL1       -0.2724
      2 C         143.7975  140.0204  160.4535 C.3     1  UNL1        0.0724
      3 C         142.6747  139.0300  160.5445 C.3     1  UNL1        0.0214
      4 C         141.5092  138.1637  160.9203 C.3     1  UNL1        0.0072
      5 C         142.0206  139.1927  161.8845 C.3     1  UNL1        0.0350
      6 C         142.7392  140.2836  162.6217 C.3     1  UNL1        0.0761
      7 C         141.0292  138.8962  162.9705 C.ar    1  UNL1       -0.0214
      8 C         141.2217  139.4760  164.3404 C.ar    1  UNL1       -0.0034
      9 C         140.2304  139.1796  165.4264 C.ar    1  UNL1        0.0146
     10 C         139.0466  138.3032  165.1425 C.ar    1  UNL1        0.1228
     11 C         138.8541  137.7233  163.7725 C.ar    1  UNL1        0.0146
     12 C         139.8454  138.0198  162.6865 C.ar    1  UNL1       -0.0034
     13 S         138.0552  138.0067  166.2285 S.3     1  UNL1        0.3126
     14 F         138.7267  136.8815  165.4982 F       1  UNL1       -0.0934
     15 F         137.7354  136.5851  166.5842 F       1  UNL1       -0.0934
     16 F         137.3838  139.1319  166.9587 F       1  UNL1       -0.0934
     17 F         137.0639  137.7102  167.3144 F       1  UNL1       -0.0934
     18 F         138.3752  139.4284  165.8727 F       1  UNL1       -0.0934
     19 C         144.8055  141.8894  162.0771 C.3     1  UNL1        0.0730
     20 C         144.3561  143.3204  162.0600 C.3     1  UNL1        0.0294
     21 C         143.8980  143.9778  163.3281 C.3     1  UNL1        0.0666
     22 S         142.5617  143.6290  163.9134 S.3     1  UNL1       -0.0756
     23 C         141.5928  142.1931  167.3867 C.ar    1  UNL1        0.2029
     24 N         143.0902  142.1791  167.4747 N.ar    1  UNL1       -0.1250
     25 N         143.6353  142.7152  166.1843 N.ar    1  UNL1       -0.1220
     26 C         142.4749  143.0607  165.2988 C.ar    1  UNL1        0.1933
     27 N         141.2126  142.7379  166.0420 N.ar    1  UNL1       -0.2860
     28 C         139.8153  142.9269  165.5301 C.3     1  UNL1        0.1341
     29 C         140.5425  143.9871  169.9023 C.3     1  UNL1        0.0556
     30 C         140.1598  142.5661  169.6121 C.ar    1  UNL1        0.1001
     31 N         139.2271  141.7202  170.4273 N.ar    1  UNL1       -0.2085
     32 C         139.1334  140.3728  169.7749 C.ar    1  UNL1        0.2849
     33 O         140.0082  140.3859  168.5565 O.2     1  UNL1       -0.4283
     34 C         140.6425  141.7415  168.4559 C.ar    1  UNL1        0.1964
@<TRIPOS>BOND
     1    29    30    1
     2    30    31   ar
     3    31    32   ar
     4    32    33   ar
     5    33    34   ar
     6    34    23    1
     7    23    24   ar
     8    24    25   ar
     9    25    26   ar
    10    26    22    1
    11    22    21    1
    12    21    20    1
    13    20    19    1
    14    19     1    1
    15     1     2    1
    16     2     3    1
    17     3     4    1
    18     4     5    1
    19     5     7    1
    20     7     8   ar
    21     8     9   ar
    22     9    10   ar
    23    10    13    1
    24    13    14    1
    25    13    15    1
    26    13    16    1
    27    13    17    1
    28    13    18    1
    29    10    11   ar
    30    11    12   ar
    31     5     6    1
    32    26    27   ar
    33    27    28    1
    34    34    30   ar
    35    27    23   ar
    36     6     1    1
    37     5     3    1
    38    12     7   ar
@<TRIPOS>MOLECULE
*****
 34 38 0 0 0
SMALL
GASTEIGER

@<TRIPOS>ATOM
      1 N         139.7657  138.1726  163.4857 N.3     1  UNL1       -0.2724
      2 C         140.9397  137.2451  163.3788 C.3     1  UNL1        0.0724
      3 C         141.9443  137.6473  164.4176 C.3     1  UNL1        0.0214
      4 C         142.7381  138.2706  165.5273 C.3     1  UNL1        0.0072
      5 C         141.3912  138.8233  165.1666 C.3     1  UNL1        0.0350
      6 C         140.0447  139.1480  164.5906 C.3     1  UNL1        0.0761
      7 C         141.3885  139.9143  166.1960 C.ar    1  UNL1       -0.0214
      8 C         140.1309  140.2315  166.9494 C.ar    1  UNL1       -0.0034
      9 C         140.1282  141.3225  167.9790 C.ar    1  UNL1        0.0146
     10 C         141.3833  142.0962  168.2550 C.ar    1  UNL1        0.1228
     11 C         142.6410  141.7790  167.5015 C.ar    1  UNL1        0.0146
     12 C         142.6436  140.6880  166.4720 C.ar    1  UNL1       -0.0034
     13 S         141.3807  143.1872  169.2845 S.3     1  UNL1        0.3126
     14 F         140.1964  143.0046  168.3821 F       1  UNL1       -0.0934
     15 F         140.1938  144.0956  169.4115 F       1  UNL1       -0.0934
     16 F         142.5650  143.3697  170.1868 F       1  UNL1       -0.0934
     17 F         141.3781  144.2781  170.3139 F       1  UNL1       -0.0934
     18 F         142.5676  142.2787  169.1573 F       1  UNL1       -0.0934
     19 C         138.5297  138.1319  162.6368 C.3     1  UNL1        0.0730
     20 C         137.9637  139.4021  162.0747 C.3     1  UNL1        0.0294
     21 C         137.7054  139.5210  160.6019 C.3     1  UNL1        0.0666
     22 S         138.2951  140.6618  159.8266 S.3     1  UNL1       -0.0756
     23 C         140.3766  143.3044  161.7627 C.ar    1  UNL1        0.2029
     24 N         139.0844  144.0404  161.5664 N.ar    1  UNL1       -0.1250
     25 N         138.1474  143.1400  160.8173 N.ar    1  UNL1       -0.1220
     26 C         138.8605  141.8476  160.5506 C.ar    1  UNL1        0.1933
     27 N         140.2382  141.9493  161.1349 N.ar    1  UNL1       -0.2860
     28 C         141.2925  140.8828  161.0978 C.3     1  UNL1        0.1341
     29 C         140.7259  143.6693  164.9868 C.3     1  UNL1        0.0556
     30 C         141.7542  143.9989  163.9456 C.ar    1  UNL1        0.1001
     31 N         143.1235  144.5542  164.2037 N.ar    1  UNL1       -0.2085
     32 C         143.8093  144.7297  162.8812 C.ar    1  UNL1        0.2849
     33 O         142.8638  144.2829  161.8059 O.2     1  UNL1       -0.4283
     34 C         141.5937  143.8313  162.4637 C.ar    1  UNL1        0.1964
@<TRIPOS>BOND
     1    29    30    1
     2    30    31   ar
     3    31    32   ar
     4    32    33   ar
     5    33    34   ar
     6    34    23    1
     7    23    24   ar
     8    24    25   ar
     9    25    26   ar
    10    26    22    1
    11    22    21    1
    12    21    20    1
    13    20    19    1
    14    19     1    1
    15     1     2    1
    16     2     3    1
    17     3     4    1
    18     4     5    1
    19     5     7    1
    20     7     8   ar
    21     8     9   ar
    22     9    10   ar
    23    10    13    1
    24    13    14    1
    25    13    15    1
    26    13    16    1
    27    13    17    1
    28    13    18    1
    29    10    11   ar
    30    11    12   ar
    31     5     6    1
    32    26    27   ar
    33    27    28    1
    34    34    30   ar
    35    27    23   ar
    36     6     1    1
    37     5     3    1
    38    12     7   ar
@<TRIPOS>MOLECULE
*****
 34 38 0 0 0
SMALL
GASTEIGER

@<TRIPOS>ATOM
      1 N         143.4111  143.1492  162.1583 N.3     1  UNL1       -0.2724
      2 C         144.7301  142.5661  161.7459 C.3     1  UNL1        0.0724
      3 C         145.1488  141.5788  162.7948 C.3     1  UNL1        0.0214
      4 C         145.2982  140.6740  163.9817 C.3     1  UNL1        0.0072
      5 C         144.0885  141.5518  163.8555 C.3     1  UNL1        0.0350
      6 C         143.0146  142.5224  163.4621 C.3     1  UNL1        0.0761
      7 C         143.4390  141.1086  165.1328 C.ar    1  UNL1       -0.0214
      8 C         143.3221  142.0620  166.2849 C.ar    1  UNL1       -0.0034
      9 C         142.6726  141.6187  167.5624 C.ar    1  UNL1        0.0146
     10 C         142.1401  140.2220  167.6876 C.ar    1  UNL1        0.1228
     11 C         142.2570  139.2686  166.5354 C.ar    1  UNL1        0.0146
     12 C         142.9064  139.7119  165.2581 C.ar    1  UNL1       -0.0034
     13 S         141.4906  139.7787  168.9650 S.3     1  UNL1        0.3126
     14 F         142.9863  139.8186  168.8586 F       1  UNL1       -0.0934
     15 F         142.3368  139.3753  170.1359 F       1  UNL1       -0.0934
     16 F         139.9949  139.7389  169.0714 F       1  UNL1       -0.0934
     17 F         140.8411  139.3354  170.2423 F       1  UNL1       -0.0934
     18 F         140.6444  140.1822  167.7940 F       1  UNL1       -0.0934
     19 C         142.6264  144.1785  161.4001 C.3     1  UNL1        0.0730
     20 C         141.1281  144.1129  161.3780 C.3     1  UNL1        0.0294
     21 C         140.3197  145.2275  161.9732 C.3     1  UNL1        0.0666
     22 S         139.0522  144.9216  162.7148 S.3     1  UNL1       -0.0756
     23 C         138.2384  141.2317  163.6022 C.ar    1  UNL1        0.2029
     24 N         137.4099  141.4221  162.3664 N.ar    1  UNL1       -0.1250
     25 N         137.6138  142.8275  161.8836 N.ar    1  UNL1       -0.1220
     26 C         138.5685  143.5057  162.8210 C.ar    1  UNL1        0.1933
     27 N         138.9545  142.5194  163.8831 N.ar    1  UNL1       -0.2860
     28 C         139.8920  142.7759  165.0256 C.3     1  UNL1        0.1341
     29 C         139.4794  138.3867  162.5942 C.3     1  UNL1        0.0556
     30 C         138.9045  138.6666  163.9512 C.ar    1  UNL1        0.1001
     31 N         138.7991  137.6879  165.0830 N.ar    1  UNL1       -0.2085
     32 C         138.1636  138.3907  166.2458 C.ar    1  UNL1        0.2849
     33 O         137.8762  139.8037  165.8327 O.2     1  UNL1       -0.4283
     34 C         138.3341  139.9742  164.4145 C.ar    1  UNL1        0.1964
@<TRIPOS>BOND
     1    29    30    1
     2    30    31   ar
     3    31    32   ar
     4    32    33   ar
     5    33    34   ar
     6    34    23    1
     7    23    24   ar
     8    24    25   ar
     9    25    26   ar
    10    26    22    1
    11    22    21    1
    12    21    20    1
    13    20    19    1
    14    19     1    1
    15     1     2    1
    16     2     3    1
    17     3     4    1
    18     4     5    1
    19     5     7    1
    20     7     8   ar
    21     8     9   ar
    22     9    10   ar
    23    10    13    1
    24    13    14    1
    25    13    15    1
    26    13    16    1
    27    13    17    1
    28    13    18    1
    29    10    11   ar
    30    11    12   ar
    31     5     6    1
    32    26    27   ar
    33    27    28    1
    34    34    30   ar
    35    27    23   ar
    36     6     1    1
    37     5     3    1
    38    12     7   ar
@<TRIPOS>MOLECULE
*****
 34 38 0 0 0
SMALL
GASTEIGER

@<TRIPOS>ATOM
      1 N         141.8082  138.2806  163.0604 N.3     1  UNL1       -0.2724
      2 C         143.1486  138.3660  162.3926 C.3     1  UNL1        0.0724
      3 C         144.0779  139.1028  163.3110 C.3     1  UNL1        0.0214
      4 C         144.7567  139.8545  164.4174 C.3     1  UNL1        0.0072
      5 C         143.3119  139.4727  164.5464 C.3     1  UNL1        0.0350
      6 C         141.9091  138.9645  164.3915 C.3     1  UNL1        0.0761
      7 C         143.1108  140.0768  165.9046 C.ar    1  UNL1       -0.0214
      8 C         143.1784  141.5648  166.0810 C.ar    1  UNL1       -0.0034
      9 C         142.9772  142.1690  167.4392 C.ar    1  UNL1        0.0146
     10 C         142.7086  141.2851  168.6209 C.ar    1  UNL1        0.1228
     11 C         142.6410  139.7969  168.4445 C.ar    1  UNL1        0.0146
     12 C         142.8421  139.1928  167.0863 C.ar    1  UNL1       -0.0034
     13 S         142.5075  141.8892  169.9791 S.3     1  UNL1        0.3126
     14 F         142.8018  142.7712  168.8020 F       1  UNL1       -0.0934
     15 F         142.6007  143.3753  170.1601 F       1  UNL1       -0.0934
     16 F         142.2131  141.0072  171.1561 F       1  UNL1       -0.0934
     17 F         142.3064  142.4933  171.3372 F       1  UNL1       -0.0934
     18 F         142.4142  140.4030  169.7979 F       1  UNL1       -0.0934
     19 C         140.5821  137.6261  162.4961 C.3     1  UNL1        0.0730
     20 C         139.2413  137.8835  163.1172 C.3     1  UNL1        0.0294
     21 C         138.1251  138.4441  162.2866 C.3     1  UNL1        0.0666
     22 S         137.9984  139.9276  162.1036 S.3     1  UNL1       -0.0756
     23 C         141.0181  142.2097  162.9631 C.ar    1  UNL1        0.2029
     24 N         140.2107  142.3103  164.2233 N.ar    1  UNL1       -0.1250
     25 N         138.9813  141.4678  164.0547 N.ar    1  UNL1       -0.1220
     26 C         139.0288  140.8463  162.6904 C.ar    1  UNL1        0.1933
     27 N         140.2876  141.3049  162.0157 N.ar    1  UNL1       -0.2860
     28 C         140.7370  140.9252  160.6359 C.3     1  UNL1        0.1341
     29 C         141.7133  145.3339  163.5999 C.3     1  UNL1        0.0556
     30 C         142.6458  144.3298  162.9898 C.ar    1  UNL1        0.1001
     31 N         144.0616  144.5855  162.5653 N.ar    1  UNL1       -0.2085
     32 C         144.6170  143.3074  162.0102 C.ar    1  UNL1        0.2849
     33 O         143.5446  142.2619  162.0917 O.2     1  UNL1       -0.4283
     34 C         142.3263  142.8938  162.6971 C.ar    1  UNL1        0.1964
@<TRIPOS>BOND
     1    29    30    1
     2    30    31   ar
     3    31    32   ar
     4    32    33   ar
     5    33    34   ar
     6    34    23    1
     7    23    24   ar
     8    24    25   ar
     9    25    26   ar
    10    26    22    1
    11    22    21    1
    12    21    20    1
    13    20    19    1
    14    19     1    1
    15     1     2    1
    16     2     3    1
    17     3     4    1
    18     4     5    1
    19     5     7    1
    20     7     8   ar
    21     8     9   ar
    22     9    10   ar
    23    10    13    1
    24    13    14    1
    25    13    15    1
    26    13    16    1
    27    13    17    1
    28    13    18    1
    29    10    11   ar
    30    11    12   ar
    31     5     6    1
    32    26    27   ar
    33    27    28    1
    34    34    30   ar
    35    27    23   ar
    36     6     1    1
    37     5     3    1
    38    12     7   ar
@<TRIPOS>MOLECULE
*****
 34 38 0 0 0
SMALL
GASTEIGER

@<TRIPOS>ATOM
      1 N         140.3356  137.9209  164.5653 N.3     1  UNL1       -0.2724
      2 C         138.8783  137.7365  164.8691 C.3     1  UNL1        0.0724
      3 C         138.5501  138.5566  166.0814 C.3     1  UNL1        0.0214
      4 C         138.5255  139.4544  167.2827 C.3     1  UNL1        0.0072
      5 C         139.8046  139.2478  166.5269 C.3     1  UNL1        0.0350
      6 C         140.9080  138.8549  165.5899 C.3     1  UNL1        0.0761
      7 C         140.6444  140.1386  167.3935 C.ar    1  UNL1       -0.0214
      8 C         140.2791  141.5839  167.5599 C.ar    1  UNL1       -0.0034
      9 C         141.1190  142.4748  168.4265 C.ar    1  UNL1        0.0146
     10 C         142.3242  141.9204  169.1267 C.ar    1  UNL1        0.1228
     11 C         142.6895  140.4750  168.9602 C.ar    1  UNL1        0.0146
     12 C         141.8496  139.5842  168.0936 C.ar    1  UNL1       -0.0034
     13 S         143.1641  142.8112  169.9933 S.3     1  UNL1        0.3126
     14 F         141.6946  143.0750  169.8481 F       1  UNL1       -0.0934
     15 F         142.5345  143.9659  170.7147 F       1  UNL1       -0.0934
     16 F         144.6336  142.5475  170.1384 F       1  UNL1       -0.0934
     17 F         144.0040  143.7021  170.8598 F       1  UNL1       -0.0934
     18 F         143.7937  141.6565  169.2718 F       1  UNL1       -0.0934
     19 C         141.0882  137.2832  163.4353 C.3     1  UNL1        0.0730
     20 C         140.8982  137.7799  162.0328 C.3     1  UNL1        0.0294
     21 C         139.5329  138.1797  161.5573 C.3     1  UNL1        0.0666
     22 S         139.2141  139.6268  161.3233 S.3     1  UNL1       -0.0756
     23 C         141.0190  142.3391  163.4329 C.ar    1  UNL1        0.2029
     24 N         139.7387  142.1811  164.1982 N.ar    1  UNL1       -0.1250
     25 N         138.9067  141.1459  163.5011 N.ar    1  UNL1       -0.1220
     26 C         139.6729  140.6640  162.3050 C.ar    1  UNL1        0.1933
     27 N         140.9784  141.4015  162.2628 N.ar    1  UNL1       -0.2860
     28 C         142.0543  141.2312  161.2316 C.3     1  UNL1        0.1341
     29 C         143.4806  141.7027  165.4788 C.3     1  UNL1        0.0556
     30 C         143.2742  142.9786  164.7176 C.ar    1  UNL1        0.1001
     31 N         144.1630  144.1860  164.7632 N.ar    1  UNL1       -0.2085
     32 C         143.5809  145.2248  163.8510 C.ar    1  UNL1        0.2849
     33 O         142.3324  144.6594  163.2416 O.2     1  UNL1       -0.4283
     34 C         142.1428  143.2712  163.7772 C.ar    1  UNL1        0.1964
@<TRIPOS>BOND
     1    29    30    1
     2    30    31   ar
     3    31    32   ar
     4    32    33   ar
     5    33    34   ar
     6    34    23    1
     7    23    24   ar
     8    24    25   ar
     9    25    26   ar
    10    26    22    1
    11    22    21    1
    12    21    20    1
    13    20    19    1
    14    19     1    1
    15     1     2    1
    16     2     3    1
    17     3     4    1
    18     4     5    1
    19     5     7    1
    20     7     8   ar
    21     8     9   ar
    22     9    10   ar
    23    10    13    1
    24    13    14    1
    25    13    15    1
    26    13    16    1
    27    13    17    1
    28    13    18    1
    29    10    11   ar
    30    11    12   ar
    31     5     6    1
    32    26    27   ar
    33    27    28    1
    34    34    30   ar
    35    27    23   ar
    36     6     1    1
    37     5     3    1
    38    12     7   ar
@<TRIPOS>MOLECULE
*****
 34 38 0 0 0
SMALL
GASTEIGER

@<TRIPOS>ATOM
      1 N         138.2060  142.1757  163.2525 N.3     1  UNL1       -0.2724
      2 C         137.7543  140.7855  162.9161 C.3     1  UNL1        0.0724
      3 C         138.1093  139.8915  164.0672 C.3     1  UNL1        0.0214
      4 C         138.5792  139.2607  165.3443 C.3     1  UNL1        0.0072
      5 C         138.7803  140.7293  165.1149 C.3     1  UNL1        0.0350
      6 C         138.8401  142.1410  164.6114 C.3     1  UNL1        0.0761
      7 C         139.4565  141.0016  166.4259 C.ar    1  UNL1       -0.0214
      8 C         139.4599  139.9544  167.4998 C.ar    1  UNL1       -0.0034
      9 C         140.1361  140.2267  168.8108 C.ar    1  UNL1        0.0146
     10 C         140.8088  141.5463  169.0479 C.ar    1  UNL1        0.1228
     11 C         140.8054  142.5935  167.9739 C.ar    1  UNL1        0.0146
     12 C         140.1293  142.3212  166.6629 C.ar    1  UNL1       -0.0034
     13 S         141.4850  141.8186  170.3588 S.3     1  UNL1        0.3126
     14 F         139.9876  141.8318  170.2702 F       1  UNL1       -0.0934
     15 F         140.6638  142.1042  171.5812 F       1  UNL1       -0.0934
     16 F         142.9823  141.8054  170.4474 F       1  UNL1       -0.0934
     17 F         142.1611  142.0910  171.6698 F       1  UNL1       -0.0934
     18 F         142.3062  141.5331  169.1364 F       1  UNL1       -0.0934
     19 C         138.0508  143.3879  162.3826 C.3     1  UNL1        0.0730
     20 C         138.4719  144.7347  162.8910 C.3     1  UNL1        0.0294
     21 C         139.3960  145.5892  162.0749 C.3     1  UNL1        0.0666
     22 S         140.7661  145.0892  161.7243 S.3     1  UNL1       -0.0756
     23 C         142.7050  142.5225  163.8964 C.ar    1  UNL1        0.2029
     24 N         142.8969  143.7794  164.6923 N.ar    1  UNL1       -0.1250
     25 N         142.1940  144.8938  163.9755 N.ar    1  UNL1       -0.1220
     26 C         141.5676  144.3258  162.7366 C.ar    1  UNL1        0.1933
     27 N         141.8834  142.8602  162.6877 N.ar    1  UNL1       -0.2860
     28 C         141.4532  141.9008  161.6179 C.3     1  UNL1        0.1341
     29 C         145.8230  141.5804  163.6956 C.3     1  UNL1        0.0556
     30 C         144.6737  140.7331  164.1552 C.ar    1  UNL1        0.1001
     31 N         144.7559  139.3039  164.6033 N.ar    1  UNL1       -0.2085
     32 C         143.3736  138.8537  164.9725 C.ar    1  UNL1        0.2849
     33 O         142.4371  140.0045  164.7526 O.2     1  UNL1       -0.4283
     34 C         143.2406  141.1661  164.2475 C.ar    1  UNL1        0.1964
@<TRIPOS>BOND
     1    29    30    1
     2    30    31   ar
     3    31    32   ar
     4    32    33   ar
     5    33    34   ar
     6    34    23    1
     7    23    24   ar
     8    24    25   ar
     9    25    26   ar
    10    26    22    1
    11    22    21    1
    12    21    20    1
    13    20    19    1
    14    19     1    1
    15     1     2    1
    16     2     3    1
    17     3     4    1
    18     4     5    1
    19     5     7    1
    20     7     8   ar
    21     8     9   ar
    22     9    10   ar
    23    10    13    1
    24    13    14    1
    25    13    15    1
    26    13    16    1
    27    13    17    1
    28    13    18    1
    29    10    11   ar
    30    11    12   ar
    31     5     6    1
    32    26    27   ar
    33    27    28    1
    34    34    30   ar
    35    27    23   ar
    36     6     1    1
    37     5     3    1
    38    12     7   ar
@<TRIPOS>MOLECULE
*****
 34 38 0 0 0
SMALL
GASTEIGER

@<TRIPOS>ATOM
      1 N         141.9354  144.7540  163.3309 N.3     1  UNL1       -0.2724
      2 C         143.3307  144.4357  162.8817 C.3     1  UNL1        0.0724
      3 C         143.8785  143.3735  163.7881 C.3     1  UNL1        0.0214
      4 C         144.1464  142.3324  164.8342 C.3     1  UNL1        0.0072
      5 C         142.8218  143.0353  164.7975 C.3     1  UNL1        0.0350
      6 C         141.6209  143.8884  164.5149 C.3     1  UNL1        0.0761
      7 C         142.2304  142.3167  165.9739 C.ar    1  UNL1       -0.0214
      8 C         142.9227  141.1142  166.5437 C.ar    1  UNL1       -0.0034
      9 C         142.3312  140.3956  167.7202 C.ar    1  UNL1        0.0146
     10 C         141.0475  140.8795  168.3267 C.ar    1  UNL1        0.1228
     11 C         140.3552  142.0821  167.7567 C.ar    1  UNL1        0.0146
     12 C         140.9466  142.8006  166.5804 C.ar    1  UNL1       -0.0034
     13 S         140.4560  140.1610  169.5030 S.3     1  UNL1        0.3126
     14 F         139.5847  141.0145  168.6299 F       1  UNL1       -0.0934
     15 F         138.9932  140.2959  169.8063 F       1  UNL1       -0.0934
     16 F         141.3274  139.3075  170.3762 F       1  UNL1       -0.0934
     17 F         139.8646  139.4424  170.6794 F       1  UNL1       -0.0934
     18 F         141.9189  140.0261  169.1997 F       1  UNL1       -0.0934
     19 C         141.0160  145.7609  162.7058 C.3     1  UNL1        0.0730
     20 C         140.0190  145.3266  161.6727 C.3     1  UNL1        0.0294
     21 C         140.4808  144.6049  160.4414 C.3     1  UNL1        0.0666
     22 S         140.0425  143.1923  160.1913 S.3     1  UNL1       -0.0756
     23 C         138.4634  141.0163  162.9906 C.ar    1  UNL1        0.2029
     24 N         137.2643  141.7720  162.4997 N.ar    1  UNL1       -0.1250
     25 N         137.7098  142.6791  161.3914 N.ar    1  UNL1       -0.1220
     26 C         139.1843  142.4840  161.1972 C.ar    1  UNL1        0.1933
     27 N         139.6500  141.4563  162.1856 N.ar    1  UNL1       -0.2860
     28 C         141.0557  140.9565  162.3415 C.3     1  UNL1        0.1341
     29 C         138.9865  137.8141  162.6410 C.3     1  UNL1        0.0556
     30 C         138.7144  138.5273  163.9323 C.ar    1  UNL1        0.1001
     31 N         138.6350  137.8937  165.2896 N.ar    1  UNL1       -0.2085
     32 C         138.3455  138.9740  166.2891 C.ar    1  UNL1        0.2849
     33 O         138.2460  140.2751  165.5496 O.2     1  UNL1       -0.4283
     34 C         138.4740  139.9990  164.0930 C.ar    1  UNL1        0.1964
@<TRIPOS>BOND
     1    29    30    1
     2    30    31   ar
     3    31    32   ar
     4    32    33   ar
     5    33    34   ar
     6    34    23    1
     7    23    24   ar
     8    24    25   ar
     9    25    26   ar
    10    26    22    1
    11    22    21    1
    12    21    20    1
    13    20    19    1
    14    19     1    1
    15     1     2    1
    16     2     3    1
    17     3     4    1
    18     4     5    1
    19     5     7    1
    20     7     8   ar
    21     8     9   ar
    22     9    10   ar
    23    10    13    1
    24    13    14    1
    25    13    15    1
    26    13    16    1
    27    13    17    1
    28    13    18    1
    29    10    11   ar
    30    11    12   ar
    31     5     6    1
    32    26    27   ar
    33    27    28    1
    34    34    30   ar
    35    27    23   ar
    36     6     1    1
    37     5     3    1
    38    12     7   ar
