@<TRIPOS>MOLECULE
*****
 27 29 0 0 0
SMALL
GASTEIGER

@<TRIPOS>ATOM
      1 C         138.8209  138.0973  164.4651 C.3     1  UNL1        0.0992
      2 C         138.8789  137.9417  161.8724 C.3     1  UNL1        0.0902
      3 N         138.5230  138.6928  163.1210 N.3     1  UNL1       -0.2639
      4 C         137.8691  140.0394  163.0255 C.3     1  UNL1        0.0995
      5 C         138.6658  141.2810  163.2974 C.ar    1  UNL1       -0.0031
      6 C         138.1041  142.3536  164.1828 C.ar    1  UNL1       -0.0030
      7 C         138.9006  143.5951  164.4547 C.ar    1  UNL1       -0.0016
      8 C         140.2590  143.7641  163.8412 C.ar    1  UNL1        0.0119
      9 C         140.8208  142.6915  162.9558 C.ar    1  UNL1        0.1342
     10 C         140.0241  141.4499  162.6839 C.ar    1  UNL1        0.0337
     11 O         142.1791  142.8604  162.3423 O.3     1  UNL1       -0.4758
     12 C         142.9756  144.1020  162.6142 C.3     1  UNL1        0.2057
     13 C         142.4139  145.1746  163.4996 C.3     1  UNL1        0.0521
     14 C         141.0556  145.0057  164.1131 C.3     1  UNL1        0.0333
     15 C         139.3375  138.9669  165.5728 C.2     1  UNL1       -0.0087
     16 C         140.7708  139.4094  165.5726 C.2     1  UNL1       -0.0010
     17 C         141.2874  140.2790  166.6803 C.ar    1  UNL1        0.0272
     18 C         140.6474  141.6083  166.9509 C.ar    1  UNL1        0.0022
     19 C         141.1639  142.4779  168.0585 C.ar    1  UNL1        0.0040
     20 C         142.3205  142.0181  168.8957 C.ar    1  UNL1        0.0737
     21 C         142.9605  140.6887  168.6251 C.ar    1  UNL1        0.0335
     22 C         142.4440  139.8192  167.5175 C.ar    1  UNL1        0.1400
     23 F         143.0840  138.4898  167.2469 F       1  UNL1       -0.2042
     24 C         142.8371  142.8877  170.0034 C.3     1  UNL1        0.4186
     25 F         143.3538  143.7572  171.1111 F       1  UNL1       -0.1659
     26 F         144.1015  142.0818  170.0462 F       1  UNL1       -0.1659
     27 F         141.5727  143.6935  169.9606 F       1  UNL1       -0.1659
@<TRIPOS>BOND
     1     2     3    1
     2     3     1    1
     3     1    15    1
     4    15    16    2
     5    16    17    1
     6    17    18   ar
     7    18    19   ar
     8    19    20   ar
     9    20    24    1
    10    24    25    1
    11    24    26    1
    12    24    27    1
    13    20    21   ar
    14    21    22   ar
    15    22    23    1
    16     3     4    1
    17     4     5    1
    18     5     6   ar
    19     6     7   ar
    20     7     8   ar
    21     8     9   ar
    22     9    10   ar
    23     9    11    1
    24    11    12    1
    25    12    13    1
    26    13    14    1
    27    22    17   ar
    28    10     5   ar
    29    14     8    1
@<TRIPOS>MOLECULE
*****
 27 29 0 0 0
SMALL
GASTEIGER

@<TRIPOS>ATOM
      1 C         144.8220  140.2965  163.5787 C.3     1  UNL1        0.0992
      2 C         144.1682  139.5224  161.1864 C.3     1  UNL1        0.0902
      3 N         144.3613  140.6215  162.1887 N.3     1  UNL1       -0.2639
      4 C         144.0936  142.0456  161.8010 C.3     1  UNL1        0.0995
      5 C         142.8681  142.7441  162.3113 C.ar    1  UNL1       -0.0031
      6 C         142.9953  144.0596  163.0208 C.ar    1  UNL1       -0.0030
      7 C         141.7700  144.7581  163.5310 C.ar    1  UNL1       -0.0016
      8 C         140.4172  144.1412  163.3317 C.ar    1  UNL1        0.0119
      9 C         140.2900  142.8258  162.6222 C.ar    1  UNL1        0.1342
     10 C         141.5155  142.1272  162.1120 C.ar    1  UNL1        0.0337
     11 O         138.9373  142.2089  162.4229 O.3     1  UNL1       -0.4758
     12 C         137.7119  142.9075  162.9331 C.3     1  UNL1        0.2057
     13 C         137.8392  144.2229  163.6426 C.3     1  UNL1        0.0521
     14 C         139.1918  144.8398  163.8420 C.3     1  UNL1        0.0333
     15 C         144.1236  140.9004  164.7608 C.2     1  UNL1       -0.0087
     16 C         142.8041  140.3496  165.2143 C.2     1  UNL1       -0.0010
     17 C         142.1057  140.9536  166.3965 C.ar    1  UNL1        0.0272
     18 C         141.2771  142.1923  166.2257 C.ar    1  UNL1        0.0022
     19 C         140.5787  142.7963  167.4077 C.ar    1  UNL1        0.0040
     20 C         140.7088  142.1616  168.7606 C.ar    1  UNL1        0.0737
     21 C         141.5373  140.9229  168.9313 C.ar    1  UNL1        0.0335
     22 C         142.2357  140.3189  167.7493 C.ar    1  UNL1        0.1400
     23 F         143.0642  139.0802  167.9201 F       1  UNL1       -0.2042
     24 C         140.0103  142.7656  169.9427 C.3     1  UNL1        0.4186
     25 F         139.3118  143.3695  171.1248 F       1  UNL1       -0.1659
     26 F         139.3173  141.4604  170.2000 F       1  UNL1       -0.1659
     27 F         140.7033  144.0707  169.6854 F       1  UNL1       -0.1659
@<TRIPOS>BOND
     1     2     3    1
     2     3     1    1
     3     1    15    1
     4    15    16    2
     5    16    17    1
     6    17    18   ar
     7    18    19   ar
     8    19    20   ar
     9    20    24    1
    10    24    25    1
    11    24    26    1
    12    24    27    1
    13    20    21   ar
    14    21    22   ar
    15    22    23    1
    16     3     4    1
    17     4     5    1
    18     5     6   ar
    19     6     7   ar
    20     7     8   ar
    21     8     9   ar
    22     9    10   ar
    23     9    11    1
    24    11    12    1
    25    12    13    1
    26    13    14    1
    27    22    17   ar
    28    10     5   ar
    29    14     8    1
@<TRIPOS>MOLECULE
*****
 27 29 0 0 0
SMALL
GASTEIGER

@<TRIPOS>ATOM
      1 C         139.1166  137.8154  162.9237 C.3     1  UNL1        0.0992
      2 C         139.4886  138.2532  160.3899 C.3     1  UNL1        0.0902
      3 N         138.7541  138.5457  161.6647 N.3     1  UNL1       -0.2639
      4 C         137.6571  139.5686  161.6803 C.3     1  UNL1        0.0995
      5 C         137.9760  141.0061  161.9668 C.ar    1  UNL1       -0.0031
      6 C         137.4424  141.6600  163.2068 C.ar    1  UNL1       -0.0030
      7 C         137.7613  143.0974  163.4933 C.ar    1  UNL1       -0.0016
      8 C         138.6137  143.8810  162.5397 C.ar    1  UNL1        0.0119
      9 C         139.1473  143.2271  161.2996 C.ar    1  UNL1        0.1342
     10 C         138.8284  141.7896  161.0132 C.ar    1  UNL1        0.0337
     11 O         139.9998  144.0107  160.3460 O.3     1  UNL1       -0.4758
     12 C         140.3186  145.4481  160.6325 C.3     1  UNL1        0.2057
     13 C         139.7850  146.1020  161.8726 C.3     1  UNL1        0.0521
     14 C         138.9326  145.3184  162.8261 C.3     1  UNL1        0.0333
     15 C         139.1080  138.5372  164.2385 C.2     1  UNL1       -0.0087
     16 C         140.1032  139.6282  164.5017 C.2     1  UNL1       -0.0010
     17 C         140.0944  140.3501  165.8166 C.ar    1  UNL1        0.0272
     18 C         139.6976  139.6244  167.0680 C.ar    1  UNL1        0.0022
     19 C         139.6889  140.3462  168.3828 C.ar    1  UNL1        0.0040
     20 C         140.0770  141.7937  168.4463 C.ar    1  UNL1        0.0737
     21 C         140.4737  142.5194  167.1949 C.ar    1  UNL1        0.0335
     22 C         140.4825  141.7976  165.8801 C.ar    1  UNL1        0.1400
     23 F         140.8793  142.5233  164.6287 F       1  UNL1       -0.2042
     24 C         140.0682  142.5156  169.7612 C.3     1  UNL1        0.4186
     25 F         140.0595  143.2374  171.0761 F       1  UNL1       -0.1659
     26 F         138.9541  141.6321  170.2388 F       1  UNL1       -0.1659
     27 F         141.1823  143.3991  169.2836 F       1  UNL1       -0.1659
@<TRIPOS>BOND
     1     2     3    1
     2     3     1    1
     3     1    15    1
     4    15    16    2
     5    16    17    1
     6    17    18   ar
     7    18    19   ar
     8    19    20   ar
     9    20    24    1
    10    24    25    1
    11    24    26    1
    12    24    27    1
    13    20    21   ar
    14    21    22   ar
    15    22    23    1
    16     3     4    1
    17     4     5    1
    18     5     6   ar
    19     6     7   ar
    20     7     8   ar
    21     8     9   ar
    22     9    10   ar
    23     9    11    1
    24    11    12    1
    25    12    13    1
    26    13    14    1
    27    22    17   ar
    28    10     5   ar
    29    14     8    1
@<TRIPOS>MOLECULE
*****
 27 29 0 0 0
SMALL
GASTEIGER

@<TRIPOS>ATOM
      1 C         139.5433  140.2255  169.2333 C.3     1  UNL1        0.0992
      2 C         141.0100  141.2859  171.0972 C.3     1  UNL1        0.0902
      3 N         140.8871  140.4412  169.8638 N.3     1  UNL1       -0.2639
      4 C         142.1081  139.8121  169.2609 C.3     1  UNL1        0.0995
      5 C         142.6195  140.2884  167.9336 C.ar    1  UNL1       -0.0031
      6 C         142.8452  141.7525  167.6983 C.ar    1  UNL1       -0.0030
      7 C         143.3565  142.2288  166.3711 C.ar    1  UNL1       -0.0016
      8 C         143.6423  141.2409  165.2790 C.ar    1  UNL1        0.0119
      9 C         143.4167  139.7767  165.5143 C.ar    1  UNL1        0.1342
     10 C         142.9052  139.3005  166.8416 C.ar    1  UNL1        0.0337
     11 O         143.7024  138.7889  164.4224 O.3     1  UNL1       -0.4758
     12 C         144.2138  139.2651  163.0951 C.3     1  UNL1        0.2057
     13 C         144.4394  140.7293  162.8598 C.3     1  UNL1        0.0521
     14 C         144.1537  141.7172  163.9518 C.3     1  UNL1        0.0333
     15 C         139.3940  140.2975  167.7425 C.2     1  UNL1       -0.0087
     16 C         138.6392  139.2269  167.0117 C.2     1  UNL1       -0.0010
     17 C         138.4900  139.2989  165.5208 C.ar    1  UNL1        0.0272
     18 C         137.9913  140.5586  164.8770 C.ar    1  UNL1        0.0022
     19 C         137.8421  140.6307  163.3862 C.ar    1  UNL1        0.0040
     20 C         138.1915  139.4431  162.5393 C.ar    1  UNL1        0.0737
     21 C         138.6903  138.1834  163.1831 C.ar    1  UNL1        0.0335
     22 C         138.8395  138.1113  164.6739 C.ar    1  UNL1        0.1400
     23 F         139.3382  136.8516  165.3177 F       1  UNL1       -0.2042
     24 C         138.0423  139.5151  161.0484 C.3     1  UNL1        0.4186
     25 F         137.8931  139.5871  159.5576 F       1  UNL1       -0.1659
     26 F         138.5800  138.1201  160.9272 F       1  UNL1       -0.1659
     27 F         137.5046  140.9101  161.1696 F       1  UNL1       -0.1659
@<TRIPOS>BOND
     1     2     3    1
     2     3     1    1
     3     1    15    1
     4    15    16    2
     5    16    17    1
     6    17    18   ar
     7    18    19   ar
     8    19    20   ar
     9    20    24    1
    10    24    25    1
    11    24    26    1
    12    24    27    1
    13    20    21   ar
    14    21    22   ar
    15    22    23    1
    16     3     4    1
    17     4     5    1
    18     5     6   ar
    19     6     7   ar
    20     7     8   ar
    21     8     9   ar
    22     9    10   ar
    23     9    11    1
    24    11    12    1
    25    12    13    1
    26    13    14    1
    27    22    17   ar
    28    10     5   ar
    29    14     8    1
@<TRIPOS>MOLECULE
*****
 27 29 0 0 0
SMALL
GASTEIGER

@<TRIPOS>ATOM
      1 C         139.0029  137.5831  163.2126 C.3     1  UNL1        0.0992
      2 C         139.3633  138.2130  160.7180 C.3     1  UNL1        0.0902
      3 N         139.9258  137.8841  162.0690 N.3     1  UNL1       -0.2639
      4 C         141.4111  137.8561  162.2765 C.3     1  UNL1        0.0995
      5 C         142.0877  138.9788  163.0059 C.ar    1  UNL1       -0.0031
      6 C         142.9629  138.6852  164.1882 C.ar    1  UNL1       -0.0030
      7 C         143.6396  139.8078  164.9176 C.ar    1  UNL1       -0.0016
      8 C         143.4411  141.2239  164.4646 C.ar    1  UNL1        0.0119
      9 C         142.5659  141.5175  163.2823 C.ar    1  UNL1        0.1342
     10 C         141.8892  140.3949  162.5529 C.ar    1  UNL1        0.0337
     11 O         142.3673  142.9336  162.8293 O.3     1  UNL1       -0.4758
     12 C         143.0440  144.0561  163.5587 C.3     1  UNL1        0.2057
     13 C         143.9192  143.7626  164.7410 C.3     1  UNL1        0.0521
     14 C         144.1177  142.3465  165.1940 C.3     1  UNL1        0.0333
     15 C         139.3176  138.0981  164.5858 C.2     1  UNL1       -0.0087
     16 C         139.0999  139.5459  164.9119 C.2     1  UNL1       -0.0010
     17 C         139.4146  140.0609  166.2852 C.ar    1  UNL1        0.0272
     18 C         140.4281  141.1524  166.4629 C.ar    1  UNL1        0.0022
     19 C         140.7428  141.6673  167.8361 C.ar    1  UNL1        0.0040
     20 C         140.0440  141.0909  169.0316 C.ar    1  UNL1        0.0737
     21 C         139.0304  139.9995  168.8539 C.ar    1  UNL1        0.0335
     22 C         138.7157  139.4845  167.4808 C.ar    1  UNL1        0.1400
     23 F         137.7022  138.3931  167.3031 F       1  UNL1       -0.2042
     24 C         140.3586  141.6059  170.4049 C.3     1  UNL1        0.4186
     25 F         140.6733  142.1209  171.7781 F       1  UNL1       -0.1659
     26 F         139.5668  142.8477  170.1206 F       1  UNL1       -0.1659
     27 F         141.1505  140.3641  170.6892 F       1  UNL1       -0.1659
@<TRIPOS>BOND
     1     2     3    1
     2     3     1    1
     3     1    15    1
     4    15    16    2
     5    16    17    1
     6    17    18   ar
     7    18    19   ar
     8    19    20   ar
     9    20    24    1
    10    24    25    1
    11    24    26    1
    12    24    27    1
    13    20    21   ar
    14    21    22   ar
    15    22    23    1
    16     3     4    1
    17     4     5    1
    18     5     6   ar
    19     6     7   ar
    20     7     8   ar
    21     8     9   ar
    22     9    10   ar
    23     9    11    1
    24    11    12    1
    25    12    13    1
    26    13    14    1
    27    22    17   ar
    28    10     5   ar
    29    14     8    1
@<TRIPOS>MOLECULE
*****
 27 29 0 0 0
SMALL
GASTEIGER

@<TRIPOS>ATOM
      1 C         138.4998  138.7634  163.5623 C.3     1  UNL1        0.0992
      2 C         137.7113  139.7129  161.2761 C.3     1  UNL1        0.0902
      3 N         138.7557  139.0301  162.1085 N.3     1  UNL1       -0.2639
      4 C         140.0560  138.6140  161.4872 C.3     1  UNL1        0.0995
      5 C         141.3529  139.0897  162.0721 C.ar    1  UNL1       -0.0031
      6 C         142.3082  138.1050  162.6784 C.ar    1  UNL1       -0.0030
      7 C         143.6050  138.5806  163.2632 C.ar    1  UNL1       -0.0016
      8 C         143.9465  140.0411  163.2417 C.ar    1  UNL1        0.0119
      9 C         142.9912  141.0259  162.6354 C.ar    1  UNL1        0.1342
     10 C         141.6943  140.5502  162.0506 C.ar    1  UNL1        0.0337
     11 O         143.3327  142.4863  162.6139 O.3     1  UNL1       -0.4758
     12 C         144.6295  142.9619  163.1988 C.3     1  UNL1        0.2057
     13 C         145.5848  141.9771  163.8050 C.3     1  UNL1        0.0521
     14 C         145.2433  140.5167  163.8265 C.3     1  UNL1        0.0333
     15 C         139.0920  139.6637  164.6056 C.2     1  UNL1       -0.0087
     16 C         140.1726  139.1525  165.5117 C.2     1  UNL1       -0.0010
     17 C         140.7648  140.0529  166.5551 C.ar    1  UNL1        0.0272
     18 C         142.0701  140.7447  166.2953 C.ar    1  UNL1        0.0022
     19 C         142.6624  141.6451  167.3386 C.ar    1  UNL1        0.0040
     20 C         141.9492  141.8537  168.6416 C.ar    1  UNL1        0.0737
     21 C         140.6439  141.1619  168.9014 C.ar    1  UNL1        0.0335
     22 C         140.0517  140.2615  167.8581 C.ar    1  UNL1        0.1400
     23 F         138.7463  139.5697  168.1178 F       1  UNL1       -0.2042
     24 C         142.5415  142.7542  169.6850 C.3     1  UNL1        0.4186
     25 F         143.1337  143.6545  170.7283 F       1  UNL1       -0.1659
     26 F         143.7513  141.8706  169.7607 F       1  UNL1       -0.1659
     27 F         141.3317  143.6377  169.6093 F       1  UNL1       -0.1659
@<TRIPOS>BOND
     1     2     3    1
     2     3     1    1
     3     1    15    1
     4    15    16    2
     5    16    17    1
     6    17    18   ar
     7    18    19   ar
     8    19    20   ar
     9    20    24    1
    10    24    25    1
    11    24    26    1
    12    24    27    1
    13    20    21   ar
    14    21    22   ar
    15    22    23    1
    16     3     4    1
    17     4     5    1
    18     5     6   ar
    19     6     7   ar
    20     7     8   ar
    21     8     9   ar
    22     9    10   ar
    23     9    11    1
    24    11    12    1
    25    12    13    1
    26    13    14    1
    27    22    17   ar
    28    10     5   ar
    29    14     8    1
@<TRIPOS>MOLECULE
*****
 27 29 0 0 0
SMALL
GASTEIGER

@<TRIPOS>ATOM
      1 C         141.0531  136.9432  163.4078 C.3     1  UNL1        0.0992
      2 C         142.2937  137.8942  161.3327 C.3     1  UNL1        0.0902
      3 N         141.0395  137.7483  162.1422 N.3     1  UNL1       -0.2639
      4 C         139.7716  138.4074  161.6862 C.3     1  UNL1        0.0995
      5 C         139.3196  139.6870  162.3253 C.ar    1  UNL1       -0.0031
      6 C         137.8641  139.9089  162.6120 C.ar    1  UNL1       -0.0030
      7 C         137.4121  141.1885  163.2510 C.ar    1  UNL1       -0.0016
      8 C         138.4157  142.2462  163.6034 C.ar    1  UNL1        0.0119
      9 C         139.8712  142.0244  163.3167 C.ar    1  UNL1        0.1342
     10 C         140.3232  140.7447  162.6776 C.ar    1  UNL1        0.0337
     11 O         140.8748  143.0820  163.6690 O.3     1  UNL1       -0.4758
     12 C         140.4228  144.3616  164.3080 C.3     1  UNL1        0.2057
     13 C         138.9673  144.5835  164.5947 C.3     1  UNL1        0.0521
     14 C         137.9637  143.5258  164.2424 C.3     1  UNL1        0.0333
     15 C         140.8262  137.6178  164.7283 C.2     1  UNL1       -0.0087
     16 C         141.7684  138.6873  165.1957 C.2     1  UNL1       -0.0010
     17 C         141.5415  139.3618  166.5162 C.ar    1  UNL1        0.0272
     18 C         142.6506  139.4302  167.5238 C.ar    1  UNL1        0.0022
     19 C         142.4238  140.1047  168.8442 C.ar    1  UNL1        0.0040
     20 C         141.0878  140.7108  169.1571 C.ar    1  UNL1        0.0737
     21 C         139.9787  140.6424  168.1495 C.ar    1  UNL1        0.0335
     22 C         140.2056  139.9679  166.8291 C.ar    1  UNL1        0.1400
     23 F         139.0965  139.8995  165.8215 F       1  UNL1       -0.2042
     24 C         140.8610  141.3854  170.4776 C.3     1  UNL1        0.4186
     25 F         140.6342  142.0598  171.7980 F       1  UNL1       -0.1659
     26 F         142.2606  141.0418  170.8935 F       1  UNL1       -0.1659
     27 F         139.4614  141.7289  170.0616 F       1  UNL1       -0.1659
@<TRIPOS>BOND
     1     2     3    1
     2     3     1    1
     3     1    15    1
     4    15    16    2
     5    16    17    1
     6    17    18   ar
     7    18    19   ar
     8    19    20   ar
     9    20    24    1
    10    24    25    1
    11    24    26    1
    12    24    27    1
    13    20    21   ar
    14    21    22   ar
    15    22    23    1
    16     3     4    1
    17     4     5    1
    18     5     6   ar
    19     6     7   ar
    20     7     8   ar
    21     8     9   ar
    22     9    10   ar
    23     9    11    1
    24    11    12    1
    25    12    13    1
    26    13    14    1
    27    22    17   ar
    28    10     5   ar
    29    14     8    1
@<TRIPOS>MOLECULE
*****
 27 29 0 0 0
SMALL
GASTEIGER

@<TRIPOS>ATOM
      1 C         138.8694  144.7452  164.9740 C.3     1  UNL1        0.0992
      2 C         137.6123  144.1953  162.7679 C.3     1  UNL1        0.0902
      3 N         138.8560  144.6415  163.4777 N.3     1  UNL1       -0.2639
      4 C         140.0865  144.9841  162.6911 C.3     1  UNL1        0.0995
      5 C         141.3993  144.3458  163.0365 C.ar    1  UNL1       -0.0031
      6 C         142.4907  145.1650  163.6591 C.ar    1  UNL1       -0.0030
      7 C         143.8035  144.5268  164.0044 C.ar    1  UNL1       -0.0016
      8 C         144.0249  143.0693  163.7272 C.ar    1  UNL1        0.0119
      9 C         142.9334  142.2501  163.1046 C.ar    1  UNL1        0.1342
     10 C         141.6206  142.8884  162.7593 C.ar    1  UNL1        0.0337
     11 O         143.1547  140.7927  162.8274 O.3     1  UNL1       -0.4758
     12 C         144.4675  140.1545  163.1728 C.3     1  UNL1        0.2057
     13 C         145.5589  140.9737  163.7954 C.3     1  UNL1        0.0521
     14 C         145.3376  142.4312  164.0726 C.3     1  UNL1        0.0333
     15 C         139.3163  143.5775  165.8028 C.2     1  UNL1       -0.0087
     16 C         140.7496  143.4666  166.2311 C.2     1  UNL1       -0.0010
     17 C         141.1965  142.2989  167.0599 C.ar    1  UNL1        0.0272
     18 C         142.0410  141.2224  166.4451 C.ar    1  UNL1        0.0022
     19 C         142.4879  140.0547  167.2738 C.ar    1  UNL1        0.0040
     20 C         142.0902  139.9636  168.7173 C.ar    1  UNL1        0.0737
     21 C         141.2458  141.0401  169.3320 C.ar    1  UNL1        0.0335
     22 C         140.7989  142.2078  168.5033 C.ar    1  UNL1        0.1400
     23 F         139.9544  143.2843  169.1181 F       1  UNL1       -0.2042
     24 C         142.5371  138.7959  169.5461 C.3     1  UNL1        0.4186
     25 F         142.9840  137.6282  170.3748 F       1  UNL1       -0.1659
     26 F         143.2374  138.2169  168.3526 F       1  UNL1       -0.1659
     27 F         141.8369  139.3748  170.7395 F       1  UNL1       -0.1659
@<TRIPOS>BOND
     1     2     3    1
     2     3     1    1
     3     1    15    1
     4    15    16    2
     5    16    17    1
     6    17    18   ar
     7    18    19   ar
     8    19    20   ar
     9    20    24    1
    10    24    25    1
    11    24    26    1
    12    24    27    1
    13    20    21   ar
    14    21    22   ar
    15    22    23    1
    16     3     4    1
    17     4     5    1
    18     5     6   ar
    19     6     7   ar
    20     7     8   ar
    21     8     9   ar
    22     9    10   ar
    23     9    11    1
    24    11    12    1
    25    12    13    1
    26    13    14    1
    27    22    17   ar
    28    10     5   ar
    29    14     8    1
@<TRIPOS>MOLECULE
*****
 27 29 0 0 0
SMALL
GASTEIGER

@<TRIPOS>ATOM
      1 C         137.6370  142.8479  162.5495 C.3     1  UNL1        0.0992
      2 C         138.5338  142.6058  160.1232 C.3     1  UNL1        0.0902
      3 N         138.5919  143.2636  161.4700 N.3     1  UNL1       -0.2639
      4 C         139.6049  144.3370  161.7374 C.3     1  UNL1        0.0995
      5 C         140.8974  143.9958  162.4180 C.ar    1  UNL1       -0.0031
      6 C         141.4156  144.8670  163.5236 C.ar    1  UNL1       -0.0030
      7 C         142.7080  144.5258  164.2042 C.ar    1  UNL1       -0.0016
      8 C         143.4823  143.3134  163.7791 C.ar    1  UNL1        0.0119
      9 C         142.9642  142.4422  162.6735 C.ar    1  UNL1        0.1342
     10 C         141.6717  142.7834  161.9929 C.ar    1  UNL1        0.0337
     11 O         143.7384  141.2299  162.2484 O.3     1  UNL1       -0.4758
     12 C         145.0308  140.8887  162.9290 C.3     1  UNL1        0.2057
     13 C         145.5490  141.7599  164.0346 C.3     1  UNL1        0.0521
     14 C         144.7747  142.9723  164.4597 C.3     1  UNL1        0.0333
     15 C         138.1160  142.7163  163.9648 C.2     1  UNL1       -0.0087
     16 C         138.9573  141.5408  164.3656 C.2     1  UNL1       -0.0010
     17 C         139.4363  141.4092  165.7810 C.ar    1  UNL1        0.0272
     18 C         140.2419  142.5097  166.4055 C.ar    1  UNL1        0.0022
     19 C         140.7210  142.3782  167.8208 C.ar    1  UNL1        0.0040
     20 C         140.3945  141.1462  168.6116 C.ar    1  UNL1        0.0737
     21 C         139.5889  140.0457  167.9872 C.ar    1  UNL1        0.0335
     22 C         139.1098  140.1772  166.5719 C.ar    1  UNL1        0.1400
     23 F         138.3042  139.0767  165.9474 F       1  UNL1       -0.2042
     24 C         140.8736  141.0146  170.0270 C.3     1  UNL1        0.4186
     25 F         141.3526  140.8830  171.4423 F       1  UNL1       -0.1659
     26 F         140.6293  139.5357  169.9722 F       1  UNL1       -0.1659
     27 F         141.1178  142.4936  170.0819 F       1  UNL1       -0.1659
@<TRIPOS>BOND
     1     2     3    1
     2     3     1    1
     3     1    15    1
     4    15    16    2
     5    16    17    1
     6    17    18   ar
     7    18    19   ar
     8    19    20   ar
     9    20    24    1
    10    24    25    1
    11    24    26    1
    12    24    27    1
    13    20    21   ar
    14    21    22   ar
    15    22    23    1
    16     3     4    1
    17     4     5    1
    18     5     6   ar
    19     6     7   ar
    20     7     8   ar
    21     8     9   ar
    22     9    10   ar
    23     9    11    1
    24    11    12    1
    25    12    13    1
    26    13    14    1
    27    22    17   ar
    28    10     5   ar
    29    14     8    1
