@<TRIPOS>MOLECULE
*****
 34 38 0 0 0
SMALL
GASTEIGER

@<TRIPOS>ATOM
      1 C         143.2629  141.9755  161.0343 C.3     1  UNL1        0.0730
      2 N         142.4376  142.8558  161.9253 N.3     1  UNL1       -0.2726
      3 C         142.4626  144.3554  161.9512 C.3     1  UNL1        0.0721
      4 C         141.4828  144.8174  162.9888 C.3     1  UNL1        0.0190
      5 C         140.8524  143.6034  163.6042 C.3     1  UNL1        0.0201
      6 C         139.9657  144.3520  164.5547 C.3     1  UNL1        0.0061
      7 C         139.9407  142.8524  164.5289 C.3     1  UNL1        0.0237
      8 C         141.4425  142.3911  162.9470 C.3     1  UNL1        0.0724
      9 C         139.4000  141.5531  165.0478 C.ar    1  UNL1       -0.0225
     10 C         139.5940  141.1817  166.4881 C.ar    1  UNL1       -0.0043
     11 C         139.0533  139.8823  167.0070 C.ar    1  UNL1        0.0035
     12 C         138.3186  138.9544  166.0855 C.ar    1  UNL1        0.0714
     13 C         138.1246  139.3257  164.6452 C.ar    1  UNL1        0.0035
     14 C         138.6653  140.6251  164.1263 C.ar    1  UNL1       -0.0043
     15 C         137.7779  137.6550  166.6044 C.3     1  UNL1        0.4186
     16 F         137.2371  136.3555  167.1233 F       1  UNL1       -0.1659
     17 F         137.0156  138.3951  167.6633 F       1  UNL1       -0.1659
     18 F         138.5402  136.9149  165.5456 F       1  UNL1       -0.1659
     19 C         142.7509  140.6240  160.6327 C.3     1  UNL1        0.0294
     20 C         143.7095  139.4875  160.4339 C.3     1  UNL1        0.0666
     21 S         143.7564  138.3636  161.4262 S.3     1  UNL1       -0.0756
     22 C         144.8310  140.2590  163.8556 C.3     1  UNL1        0.1340
     23 N         143.6056  139.3945  163.8878 N.ar    1  UNL1       -0.2884
     24 C         143.1117  138.5233  162.7711 C.ar    1  UNL1        0.1932
     25 N         141.8598  137.8397  163.2355 N.ar    1  UNL1       -0.1221
     26 N         141.5800  138.2885  164.6392 N.ar    1  UNL1       -0.1282
     27 C         142.6590  139.2494  165.0424 C.ar    1  UNL1        0.1678
     28 C         142.7716  139.9434  166.3674 C.2     1  UNL1        0.0488
     29 C         142.8945  141.4373  166.4237 C.2     1  UNL1       -0.0121
     30 C         143.0071  142.1312  167.7487 C.3     1  UNL1        0.1133
     31 C         142.9967  141.3311  169.0176 C.2     1  UNL1        0.2500
     32 O         143.1093  142.0251  170.3426 O.2     1  UNL1       -0.2726
     33 N         142.8738  139.8372  168.9613 N.am    1  UNL1       -0.1775
     34 C         142.7612  139.1434  167.6362 C.2     1  UNL1        0.0913
@<TRIPOS>BOND
     1    22    23    1
     2    23    24   ar
     3    24    21    1
     4    21    20    1
     5    20    19    1
     6    19     1    1
     7     1     2    1
     8     2     3    1
     9     3     4    1
    10     5     4    1
    11     5     6    1
    12     6     7    1
    13     7     9    1
    14     9    10   ar
    15    10    11   ar
    16    11    12   ar
    17    12    15    1
    18    15    16    1
    19    15    17    1
    20    15    18    1
    21    12    13   ar
    22    13    14   ar
    23     5     8    1
    24    24    25   ar
    25    25    26   ar
    26    26    27   ar
    27    27    28    1
    28    28    29    2
    29    29    30    1
    30    30    31    1
    31    31    32    2
    32    31    33    1
    33    33    34    2
    34    27    23   ar
    35    34    28    1
    36     8     2    1
    37     7     5    1
    38    14     9   ar
@<TRIPOS>MOLECULE
*****
 34 38 0 0 0
SMALL
GASTEIGER

@<TRIPOS>ATOM
      1 C         144.4883  143.0612  163.3523 C.3     1  UNL1        0.0730
      2 N         143.1821  143.7638  163.5766 N.3     1  UNL1       -0.2726
      3 C         142.9025  145.2126  163.3066 C.3     1  UNL1        0.0721
      4 C         141.4738  145.4851  163.6735 C.3     1  UNL1        0.0190
      5 C         140.8705  144.2047  164.1702 C.3     1  UNL1        0.0201
      6 C         139.5084  144.7696  164.4452 C.3     1  UNL1        0.0061
      7 C         139.7880  143.3209  164.7153 C.3     1  UNL1        0.0237
      8 C         141.9263  143.1409  164.1104 C.3     1  UNL1        0.0724
      9 C         139.3245  141.9741  165.1858 C.ar    1  UNL1       -0.0225
     10 C         139.9004  141.3773  166.4357 C.ar    1  UNL1       -0.0043
     11 C         139.4369  140.0305  166.9062 C.ar    1  UNL1        0.0035
     12 C         138.3975  139.2807  166.1269 C.ar    1  UNL1        0.0714
     13 C         137.8216  139.8775  164.8770 C.ar    1  UNL1        0.0035
     14 C         138.2851  141.2242  164.4065 C.ar    1  UNL1       -0.0043
     15 C         137.9340  137.9339  166.5975 C.3     1  UNL1        0.4186
     16 F         137.4704  136.5871  167.0681 F       1  UNL1       -0.1659
     17 F         138.7167  137.2802  165.4975 F       1  UNL1       -0.1659
     18 F         137.1513  138.5876  167.6975 F       1  UNL1       -0.1659
     19 C         144.9989  142.0845  164.3697 C.3     1  UNL1        0.0294
     20 C         145.6110  140.7892  163.9249 C.3     1  UNL1        0.0666
     21 S         144.8842  139.4977  164.1564 S.3     1  UNL1       -0.0756
     22 C         143.5654  140.3476  161.2950 C.3     1  UNL1        0.1340
     23 N         142.8311  139.7643  162.4657 N.ar    1  UNL1       -0.2884
     24 C         143.4373  139.3737  163.7810 C.ar    1  UNL1        0.1932
     25 N         142.3425  138.8372  164.6549 N.ar    1  UNL1       -0.1221
     26 N         141.0597  138.8963  163.8798 N.ar    1  UNL1       -0.1282
     27 C         141.3616  139.4693  162.5268 C.ar    1  UNL1        0.1678
     28 C         140.3684  139.7057  161.4278 C.2     1  UNL1        0.0488
     29 C         139.8864  141.0965  161.1389 C.2     1  UNL1       -0.0121
     30 C         138.8933  141.3329  160.0399 C.3     1  UNL1        0.1133
     31 C         138.3821  140.1785  159.2299 C.2     1  UNL1        0.2500
     32 O         137.3890  140.4149  158.1309 O.2     1  UNL1       -0.2726
     33 N         138.8641  138.7877  159.5188 N.am    1  UNL1       -0.1775
     34 C         139.8573  138.5514  160.6178 C.2     1  UNL1        0.0913
@<TRIPOS>BOND
     1    22    23    1
     2    23    24   ar
     3    24    21    1
     4    21    20    1
     5    20    19    1
     6    19     1    1
     7     1     2    1
     8     2     3    1
     9     3     4    1
    10     5     4    1
    11     5     6    1
    12     6     7    1
    13     7     9    1
    14     9    10   ar
    15    10    11   ar
    16    11    12   ar
    17    12    15    1
    18    15    16    1
    19    15    17    1
    20    15    18    1
    21    12    13   ar
    22    13    14   ar
    23     5     8    1
    24    24    25   ar
    25    25    26   ar
    26    26    27   ar
    27    27    28    1
    28    28    29    2
    29    29    30    1
    30    30    31    1
    31    31    32    2
    32    31    33    1
    33    33    34    2
    34    27    23   ar
    35    34    28    1
    36     8     2    1
    37     7     5    1
    38    14     9   ar
@<TRIPOS>MOLECULE
*****
 34 38 0 0 0
SMALL
GASTEIGER

@<TRIPOS>ATOM
      1 C         143.3375  143.2038  161.1081 C.3     1  UNL1        0.0730
      2 N         142.0292  143.8207  161.5053 N.3     1  UNL1       -0.2726
      3 C         141.5516  145.1926  161.1313 C.3     1  UNL1        0.0721
      4 C         140.1961  145.3937  161.7411 C.3     1  UNL1        0.0190
      5 C         139.8358  144.1462  162.4921 C.3     1  UNL1        0.0201
      6 C         138.4971  144.6292  162.9657 C.3     1  UNL1        0.0061
      7 C         138.9746  143.2574  163.3397 C.3     1  UNL1        0.0237
      8 C         140.9688  143.1740  162.3464 C.3     1  UNL1        0.0724
      9 C         138.7532  141.9522  164.0450 C.ar    1  UNL1       -0.0225
     10 C         138.1238  140.8027  163.3153 C.ar    1  UNL1       -0.0043
     11 C         137.9024  139.4975  164.0206 C.ar    1  UNL1        0.0035
     12 C         138.3103  139.3419  165.4556 C.ar    1  UNL1        0.0714
     13 C         138.9396  140.4914  166.1854 C.ar    1  UNL1        0.0035
     14 C         139.1611  141.7966  165.4801 C.ar    1  UNL1       -0.0043
     15 C         138.0889  138.0367  166.1609 C.3     1  UNL1        0.4186
     16 F         137.8674  136.7315  166.8663 F       1  UNL1       -0.1659
     17 F         137.4001  138.7588  167.2809 F       1  UNL1       -0.1659
     18 F         138.7776  137.3147  165.0410 F       1  UNL1       -0.1659
     19 C         143.4999  141.7128  161.1265 C.3     1  UNL1        0.0294
     20 C         144.5175  141.0801  162.0289 C.3     1  UNL1        0.0666
     21 S         144.0847  140.4393  163.3142 S.3     1  UNL1       -0.0756
     22 C         142.4049  139.5486  165.9665 C.3     1  UNL1        0.1340
     23 N         143.0699  140.8754  165.7483 N.ar    1  UNL1       -0.2884
     24 C         143.8420  141.2847  164.5292 C.ar    1  UNL1        0.1932
     25 N         144.3289  142.6880  164.7385 N.ar    1  UNL1       -0.1221
     26 N         143.8577  143.1459  166.0869 N.ar    1  UNL1       -0.1282
     27 C         143.0796  142.0257  166.7111 C.ar    1  UNL1        0.1678
     28 C         142.4259  142.0512  168.0609 C.2     1  UNL1        0.0488
     29 C         141.1203  142.7655  168.2486 C.2     1  UNL1       -0.0121
     30 C         140.4667  142.7911  169.5985 C.3     1  UNL1        0.1133
     31 C         141.1187  142.1023  170.7606 C.2     1  UNL1        0.2500
     32 O         140.4651  142.1278  172.1105 O.2     1  UNL1       -0.2726
     33 N         142.4243  141.3880  170.5729 N.am    1  UNL1       -0.1775
     34 C         143.0779  141.3625  169.2230 C.2     1  UNL1        0.0913
@<TRIPOS>BOND
     1    22    23    1
     2    23    24   ar
     3    24    21    1
     4    21    20    1
     5    20    19    1
     6    19     1    1
     7     1     2    1
     8     2     3    1
     9     3     4    1
    10     5     4    1
    11     5     6    1
    12     6     7    1
    13     7     9    1
    14     9    10   ar
    15    10    11   ar
    16    11    12   ar
    17    12    15    1
    18    15    16    1
    19    15    17    1
    20    15    18    1
    21    12    13   ar
    22    13    14   ar
    23     5     8    1
    24    24    25   ar
    25    25    26   ar
    26    26    27   ar
    27    27    28    1
    28    28    29    2
    29    29    30    1
    30    30    31    1
    31    31    32    2
    32    31    33    1
    33    33    34    2
    34    27    23   ar
    35    34    28    1
    36     8     2    1
    37     7     5    1
    38    14     9   ar
@<TRIPOS>MOLECULE
*****
 34 38 0 0 0
SMALL
GASTEIGER

@<TRIPOS>ATOM
      1 C         142.5906  137.9953  162.6478 C.3     1  UNL1        0.0730
      2 N         141.2736  138.2077  163.3337 N.3     1  UNL1       -0.2726
      3 C         139.9471  137.6743  162.8801 C.3     1  UNL1        0.0721
      4 C         138.9056  138.1278  163.8597 C.3     1  UNL1        0.0190
      5 C         139.5884  138.9415  164.9188 C.3     1  UNL1        0.0201
      6 C         138.3500  139.2378  165.7116 C.3     1  UNL1        0.0061
      7 C         139.6765  139.7712  166.1653 C.3     1  UNL1        0.0237
      8 C         141.0519  138.9909  164.5937 C.3     1  UNL1        0.0724
      9 C         140.4933  140.5582  167.1469 C.ar    1  UNL1       -0.0225
     10 C         141.6914  139.9328  167.7976 C.ar    1  UNL1       -0.0043
     11 C         142.5081  140.7198  168.7791 C.ar    1  UNL1        0.0035
     12 C         142.1268  142.1323  169.1100 C.ar    1  UNL1        0.0714
     13 C         140.9287  142.7577  168.4593 C.ar    1  UNL1        0.0035
     14 C         140.1119  141.9707  167.4777 C.ar    1  UNL1       -0.0043
     15 C         142.9435  142.9193  170.0916 C.3     1  UNL1        0.4186
     16 F         143.7603  143.7064  171.0732 F       1  UNL1       -0.1659
     17 F         144.0271  141.8846  170.0195 F       1  UNL1       -0.1659
     18 F         141.8599  143.9540  170.1636 F       1  UNL1       -0.1659
     19 C         142.6527  137.9173  161.1512 C.3     1  UNL1        0.0294
     20 C         143.4899  138.8967  160.3831 C.3     1  UNL1        0.0666
     21 S         142.8361  140.0347  159.6569 S.3     1  UNL1       -0.0756
     22 C         142.7385  141.8576  162.3618 C.3     1  UNL1        0.1340
     23 N         141.5723  141.5291  161.4774 N.ar    1  UNL1       -0.2884
     24 C         141.6172  140.6912  160.2341 C.ar    1  UNL1        0.1932
     25 N         140.2291  140.6251  159.6694 N.ar    1  UNL1       -0.1221
     26 N         139.3264  141.4221  160.5637 N.ar    1  UNL1       -0.1282
     27 C         140.1565  141.9809  161.6812 C.ar    1  UNL1        0.1678
     28 C         139.6583  142.8405  162.8050 C.2     1  UNL1        0.0488
     29 C         138.5228  142.3683  163.6638 C.2     1  UNL1       -0.0121
     30 C         138.0246  143.2279  164.7876 C.3     1  UNL1        0.1133
     31 C         138.6620  144.5597  165.0525 C.2     1  UNL1        0.2500
     32 O         138.1638  145.4192  166.1763 O.2     1  UNL1       -0.2726
     33 N         139.7975  145.0319  164.1937 N.am    1  UNL1       -0.1775
     34 C         140.2957  144.1722  163.0699 C.2     1  UNL1        0.0913
@<TRIPOS>BOND
     1    22    23    1
     2    23    24   ar
     3    24    21    1
     4    21    20    1
     5    20    19    1
     6    19     1    1
     7     1     2    1
     8     2     3    1
     9     3     4    1
    10     5     4    1
    11     5     6    1
    12     6     7    1
    13     7     9    1
    14     9    10   ar
    15    10    11   ar
    16    11    12   ar
    17    12    15    1
    18    15    16    1
    19    15    17    1
    20    15    18    1
    21    12    13   ar
    22    13    14   ar
    23     5     8    1
    24    24    25   ar
    25    25    26   ar
    26    26    27   ar
    27    27    28    1
    28    28    29    2
    29    29    30    1
    30    30    31    1
    31    31    32    2
    32    31    33    1
    33    33    34    2
    34    27    23   ar
    35    34    28    1
    36     8     2    1
    37     7     5    1
    38    14     9   ar
@<TRIPOS>MOLECULE
*****
 34 38 0 0 0
SMALL
GASTEIGER

@<TRIPOS>ATOM
      1 C         137.7803  140.6248  161.9887 C.3     1  UNL1        0.0730
      2 N         138.1309  141.8528  162.7756 N.3     1  UNL1       -0.2726
      3 C         137.7749  143.2640  162.4128 C.3     1  UNL1        0.0721
      4 C         138.3230  144.1684  163.4765 C.3     1  UNL1        0.0190
      5 C         139.0179  143.3162  164.4967 C.3     1  UNL1        0.0201
      6 C         139.4392  144.4483  165.3860 C.3     1  UNL1        0.0061
      7 C         139.7953  143.0371  165.7489 C.3     1  UNL1        0.0237
      8 C         138.8992  141.8850  164.0636 C.3     1  UNL1        0.0724
      9 C         140.4497  142.0612  166.6812 C.ar    1  UNL1       -0.0225
     10 C         141.9187  142.1654  166.9659 C.ar    1  UNL1       -0.0043
     11 C         142.5731  141.1895  167.8983 C.ar    1  UNL1        0.0035
     12 C         141.7584  140.1094  168.5460 C.ar    1  UNL1        0.0714
     13 C         140.2894  140.0052  168.2614 C.ar    1  UNL1        0.0035
     14 C         139.6350  140.9811  167.3290 C.ar    1  UNL1       -0.0043
     15 C         142.4128  139.1335  169.4784 C.3     1  UNL1        0.4186
     16 F         143.0672  138.1575  170.4108 F       1  UNL1       -0.1659
     17 F         141.7719  139.8208  170.6475 F       1  UNL1       -0.1659
     18 F         143.0537  138.4462  168.3093 F       1  UNL1       -0.1659
     19 C         138.0662  139.2650  162.5537 C.3     1  UNL1        0.0294
     20 C         138.5961  138.1795  161.6644 C.3     1  UNL1        0.0666
     21 S         139.9529  138.3172  161.0397 S.3     1  UNL1       -0.0756
     22 C         141.5128  139.2341  163.7555 C.3     1  UNL1        0.1340
     23 N         141.4541  140.0043  162.4697 N.ar    1  UNL1       -0.2884
     24 C         140.7371  139.5829  161.2214 C.ar    1  UNL1        0.1932
     25 N         140.9420  140.6493  160.1866 N.ar    1  UNL1       -0.1221
     26 N         141.7856  141.7299  160.7953 N.ar    1  UNL1       -0.1282
     27 C         142.1022  141.3313  162.2064 C.ar    1  UNL1        0.1678
     28 C         142.9227  142.1210  163.1827 C.2     1  UNL1        0.0488
     29 C         142.5798  143.5539  163.4641 C.2     1  UNL1       -0.0121
     30 C         143.4003  144.3436  164.4404 C.3     1  UNL1        0.1133
     31 C         144.5638  143.7003  165.1352 C.2     1  UNL1        0.2500
     32 O         145.3843  144.4900  166.1115 O.2     1  UNL1       -0.2726
     33 N         144.9066  142.2674  164.8538 N.am    1  UNL1       -0.1775
     34 C         144.0861  141.4778  163.8775 C.2     1  UNL1        0.0913
@<TRIPOS>BOND
     1    22    23    1
     2    23    24   ar
     3    24    21    1
     4    21    20    1
     5    20    19    1
     6    19     1    1
     7     1     2    1
     8     2     3    1
     9     3     4    1
    10     5     4    1
    11     5     6    1
    12     6     7    1
    13     7     9    1
    14     9    10   ar
    15    10    11   ar
    16    11    12   ar
    17    12    15    1
    18    15    16    1
    19    15    17    1
    20    15    18    1
    21    12    13   ar
    22    13    14   ar
    23     5     8    1
    24    24    25   ar
    25    25    26   ar
    26    26    27   ar
    27    27    28    1
    28    28    29    2
    29    29    30    1
    30    30    31    1
    31    31    32    2
    32    31    33    1
    33    33    34    2
    34    27    23   ar
    35    34    28    1
    36     8     2    1
    37     7     5    1
    38    14     9   ar
@<TRIPOS>MOLECULE
*****
 34 38 0 0 0
SMALL
GASTEIGER

@<TRIPOS>ATOM
      1 C         139.5721  143.4660  159.1374 C.3     1  UNL1        0.0730
      2 N         139.7349  144.1202  160.4774 N.3     1  UNL1       -0.2726
      3 C         140.1094  145.5524  160.7196 C.3     1  UNL1        0.0721
      4 C         140.1578  145.7744  162.2023 C.3     1  UNL1        0.0190
      5 C         139.8131  144.4795  162.8764 C.3     1  UNL1        0.0201
      6 C         139.9390  144.9948  164.2795 C.3     1  UNL1        0.0061
      7 C         139.5645  143.5626  164.0373 C.3     1  UNL1        0.0237
      8 C         139.5518  143.4571  161.8103 C.3     1  UNL1        0.0724
      9 C         139.2047  142.2064  164.5676 C.ar    1  UNL1       -0.0225
     10 C         139.6306  141.8039  165.9484 C.ar    1  UNL1       -0.0043
     11 C         139.2709  140.4477  166.4788 C.ar    1  UNL1        0.0035
     12 C         138.4852  139.4941  165.6283 C.ar    1  UNL1        0.0714
     13 C         138.0593  139.8966  164.2475 C.ar    1  UNL1        0.0035
     14 C         138.4191  141.2528  163.7171 C.ar    1  UNL1       -0.0043
     15 C         138.1254  138.1379  166.1586 C.3     1  UNL1        0.4186
     16 F         137.7656  136.7816  166.6891 F       1  UNL1       -0.1659
     17 F         138.6377  137.5086  164.8971 F       1  UNL1       -0.1659
     18 F         137.6131  138.7671  167.4202 F       1  UNL1       -0.1659
     19 C         140.7106  142.6975  158.5348 C.3     1  UNL1        0.0294
     20 C         141.9442  143.4187  158.0785 C.3     1  UNL1        0.0666
     21 S         143.2588  143.1555  158.7511 S.3     1  UNL1       -0.0756
     22 C         143.5721  140.2552  160.2139 C.3     1  UNL1        0.1340
     23 N         143.4532  141.5821  160.9033 N.ar    1  UNL1       -0.2884
     24 C         143.3093  142.9152  160.2309 C.ar    1  UNL1        0.1932
     25 N         143.2246  143.9659  161.2981 N.ar    1  UNL1       -0.1221
     26 N         143.3162  143.2822  162.6300 N.ar    1  UNL1       -0.1282
     27 C         143.4575  141.8089  162.3861 C.ar    1  UNL1        0.1678
     28 C         143.5814  140.7486  163.4399 C.2     1  UNL1        0.0488
     29 C         142.3521  140.2083  164.1083 C.2     1  UNL1       -0.0121
     30 C         142.4760  139.1480  165.1621 C.3     1  UNL1        0.1133
     31 C         143.8293  138.6280  165.5474 C.2     1  UNL1        0.2500
     32 O         143.9531  137.5677  166.6011 O.2     1  UNL1       -0.2726
     33 N         145.0586  139.1683  164.8789 N.am    1  UNL1       -0.1775
     34 C         144.9346  140.2286  163.8251 C.2     1  UNL1        0.0913
@<TRIPOS>BOND
     1    22    23    1
     2    23    24   ar
     3    24    21    1
     4    21    20    1
     5    20    19    1
     6    19     1    1
     7     1     2    1
     8     2     3    1
     9     3     4    1
    10     5     4    1
    11     5     6    1
    12     6     7    1
    13     7     9    1
    14     9    10   ar
    15    10    11   ar
    16    11    12   ar
    17    12    15    1
    18    15    16    1
    19    15    17    1
    20    15    18    1
    21    12    13   ar
    22    13    14   ar
    23     5     8    1
    24    24    25   ar
    25    25    26   ar
    26    26    27   ar
    27    27    28    1
    28    28    29    2
    29    29    30    1
    30    30    31    1
    31    31    32    2
    32    31    33    1
    33    33    34    2
    34    27    23   ar
    35    34    28    1
    36     8     2    1
    37     7     5    1
    38    14     9   ar
@<TRIPOS>MOLECULE
*****
 34 38 0 0 0
SMALL
GASTEIGER

@<TRIPOS>ATOM
      1 C         144.0193  139.4384  161.7232 C.3     1  UNL1        0.0730
      2 N         144.0371  140.8281  162.2873 N.3     1  UNL1       -0.2726
      3 C         144.6178  142.0416  161.6238 C.3     1  UNL1        0.0721
      4 C         144.4168  143.2118  162.5404 C.3     1  UNL1        0.0190
      5 C         143.7120  142.7216  163.7704 C.3     1  UNL1        0.0201
      6 C         143.6560  144.0525  164.4600 C.3     1  UNL1        0.0061
      7 C         143.0753  142.8390  165.1235 C.3     1  UNL1        0.0237
      8 C         143.4773  141.2484  163.6140 C.3     1  UNL1        0.0724
      9 C         142.3725  142.2062  166.2878 C.ar    1  UNL1       -0.0225
     10 C         140.8955  141.9520  166.2243 C.ar    1  UNL1       -0.0043
     11 C         140.1927  141.3192  167.3886 C.ar    1  UNL1        0.0035
     12 C         140.9668  140.9405  168.6163 C.ar    1  UNL1        0.0714
     13 C         142.4438  141.1946  168.6797 C.ar    1  UNL1        0.0035
     14 C         143.1466  141.8275  167.5155 C.ar    1  UNL1       -0.0043
     15 C         140.2640  140.3077  169.7805 C.3     1  UNL1        0.4186
     16 F         139.5611  139.6748  170.9449 F       1  UNL1       -0.1659
     17 F         139.1375  141.2870  169.6329 F       1  UNL1       -0.1659
     18 F         141.3904  139.3283  169.9282 F       1  UNL1       -0.1659
     19 C         143.3925  139.1800  160.3852 C.3     1  UNL1        0.0294
     20 C         142.2186  138.2529  160.2732 C.3     1  UNL1        0.0666
     21 S         140.8785  138.7859  159.8609 S.3     1  UNL1       -0.0756
     22 C         140.1424  139.7678  162.8848 C.3     1  UNL1        0.1340
     23 N         140.1283  140.6226  161.6522 N.ar    1  UNL1       -0.2884
     24 C         140.4667  140.1713  160.2623 C.ar    1  UNL1        0.1932
     25 N         140.3209  141.3485  159.3443 N.ar    1  UNL1       -0.1221
     26 N         139.8925  142.5275  160.1668 N.ar    1  UNL1       -0.1282
     27 C         139.7734  142.0788  161.5933 C.ar    1  UNL1        0.1678
     28 C         139.3703  142.9359  162.7564 C.2     1  UNL1        0.0488
     29 C         140.2438  144.0774  163.1852 C.2     1  UNL1       -0.0121
     30 C         139.8407  144.9345  164.3484 C.3     1  UNL1        0.1133
     31 C         138.5639  144.6500  165.0826 C.2     1  UNL1        0.2500
     32 O         138.1608  145.5071  166.2458 O.2     1  UNL1       -0.2726
     33 N         137.6904  143.5086  164.6538 N.am    1  UNL1       -0.1775
     34 C         138.0936  142.6515  163.4906 C.2     1  UNL1        0.0913
@<TRIPOS>BOND
     1    22    23    1
     2    23    24   ar
     3    24    21    1
     4    21    20    1
     5    20    19    1
     6    19     1    1
     7     1     2    1
     8     2     3    1
     9     3     4    1
    10     5     4    1
    11     5     6    1
    12     6     7    1
    13     7     9    1
    14     9    10   ar
    15    10    11   ar
    16    11    12   ar
    17    12    15    1
    18    15    16    1
    19    15    17    1
    20    15    18    1
    21    12    13   ar
    22    13    14   ar
    23     5     8    1
    24    24    25   ar
    25    25    26   ar
    26    26    27   ar
    27    27    28    1
    28    28    29    2
    29    29    30    1
    30    30    31    1
    31    31    32    2
    32    31    33    1
    33    33    34    2
    34    27    23   ar
    35    34    28    1
    36     8     2    1
    37     7     5    1
    38    14     9   ar
@<TRIPOS>MOLECULE
*****
 34 38 0 0 0
SMALL
GASTEIGER

@<TRIPOS>ATOM
      1 C         142.1696  144.0172  161.0877 C.3     1  UNL1        0.0730
      2 N         143.1843  143.1315  161.7480 N.3     1  UNL1       -0.2726
      3 C         144.5017  142.7133  161.1653 C.3     1  UNL1        0.0721
      4 C         145.1914  141.8319  162.1641 C.3     1  UNL1        0.0190
      5 C         144.3002  141.7054  163.3641 C.3     1  UNL1        0.0201
      6 C         145.2162  140.8114  164.1461 C.3     1  UNL1        0.0061
      7 C         143.8988  141.2297  164.7288 C.3     1  UNL1        0.0237
      8 C         143.0598  142.5087  163.1069 C.3     1  UNL1        0.0724
      9 C         142.9065  141.1965  165.8531 C.ar    1  UNL1       -0.0225
     10 C         142.3377  139.8869  166.3131 C.ar    1  UNL1       -0.0043
     11 C         141.3453  139.8537  167.4374 C.ar    1  UNL1        0.0035
     12 C         140.9217  141.1301  168.1017 C.ar    1  UNL1        0.0714
     13 C         141.4905  142.4397  167.6418 C.ar    1  UNL1        0.0035
     14 C         142.4829  142.4729  166.5175 C.ar    1  UNL1       -0.0043
     15 C         139.9294  141.0969  169.2261 C.3     1  UNL1        0.4186
     16 F         138.9370  141.0638  170.3504 F       1  UNL1       -0.1659
     17 F         139.9820  139.5978  169.2282 F       1  UNL1       -0.1659
     18 F         139.8768  142.5960  169.2239 F       1  UNL1       -0.1659
     19 C         141.8067  143.7989  159.6488 C.3     1  UNL1        0.0294
     20 C         140.5422  143.0733  159.2959 C.3     1  UNL1        0.0666
     21 S         140.5345  141.5755  159.2148 S.3     1  UNL1       -0.0756
     22 C         138.2543  141.2184  161.5219 C.3     1  UNL1        0.1340
     23 N         139.6173  140.5921  161.5249 N.ar    1  UNL1       -0.2884
     24 C         140.6654  140.7562  160.4645 C.ar    1  UNL1        0.1932
     25 N         141.8673  139.9571  160.8730 N.ar    1  UNL1       -0.1221
     26 N         141.5620  139.2992  162.1860 N.ar    1  UNL1       -0.1282
     27 C         140.1714  139.6915  162.5889 C.ar    1  UNL1        0.1678
     28 C         139.4599  139.2593  163.8367 C.2     1  UNL1        0.0488
     29 C         138.8470  140.2846  164.7440 C.2     1  UNL1       -0.0121
     30 C         138.1355  139.8523  165.9918 C.3     1  UNL1        0.1133
     31 C         138.0370  138.3947  166.3322 C.2     1  UNL1        0.2500
     32 O         137.3255  137.9625  167.5800 O.2     1  UNL1       -0.2726
     33 N         138.6499  137.3695  165.4249 N.am    1  UNL1       -0.1775
     34 C         139.3614  137.8018  164.1771 C.2     1  UNL1        0.0913
@<TRIPOS>BOND
     1    22    23    1
     2    23    24   ar
     3    24    21    1
     4    21    20    1
     5    20    19    1
     6    19     1    1
     7     1     2    1
     8     2     3    1
     9     3     4    1
    10     5     4    1
    11     5     6    1
    12     6     7    1
    13     7     9    1
    14     9    10   ar
    15    10    11   ar
    16    11    12   ar
    17    12    15    1
    18    15    16    1
    19    15    17    1
    20    15    18    1
    21    12    13   ar
    22    13    14   ar
    23     5     8    1
    24    24    25   ar
    25    25    26   ar
    26    26    27   ar
    27    27    28    1
    28    28    29    2
    29    29    30    1
    30    30    31    1
    31    31    32    2
    32    31    33    1
    33    33    34    2
    34    27    23   ar
    35    34    28    1
    36     8     2    1
    37     7     5    1
    38    14     9   ar
@<TRIPOS>MOLECULE
*****
 34 38 0 0 0
SMALL
GASTEIGER

@<TRIPOS>ATOM
      1 C         144.0480  140.3019  160.4801 C.3     1  UNL1        0.0730
      2 N         142.7385  139.7223  160.0336 N.3     1  UNL1       -0.2726
      3 C         142.3704  139.3560  158.6264 C.3     1  UNL1        0.0721
      4 C         140.9716  138.8146  158.6391 C.3     1  UNL1        0.0190
      5 C         140.4752  138.8463  160.0543 C.3     1  UNL1        0.0201
      6 C         139.1209  138.2732  159.7582 C.3     1  UNL1        0.0061
      7 C         139.4890  138.6395  161.1655 C.3     1  UNL1        0.0237
      8 C         141.5672  139.4073  160.9161 C.3     1  UNL1        0.0724
      9 C         139.1322  138.7316  162.6195 C.ar    1  UNL1       -0.0225
     10 C         138.4343  139.9511  163.1447 C.ar    1  UNL1       -0.0043
     11 C         138.0775  140.0432  164.5987 C.ar    1  UNL1        0.0035
     12 C         138.4185  138.9158  165.5275 C.ar    1  UNL1        0.0714
     13 C         139.1163  137.6963  165.0022 C.ar    1  UNL1        0.0035
     14 C         139.4732  137.6042  163.5482 C.ar    1  UNL1       -0.0043
     15 C         138.0617  139.0079  166.9815 C.3     1  UNL1        0.4186
     16 F         137.7048  139.0999  168.4356 F       1  UNL1       -0.1659
     17 F         138.8421  140.2840  167.0922 F       1  UNL1       -0.1659
     18 F         137.2812  137.7317  166.8708 F       1  UNL1       -0.1659
     19 C         144.1549  141.7666  160.7851 C.3     1  UNL1        0.0294
     20 C         144.6101  142.2193  162.1408 C.3     1  UNL1        0.0666
     21 S         143.7524  143.1474  162.9488 S.3     1  UNL1       -0.0756
     22 C         141.4678  141.4388  164.5333 C.3     1  UNL1        0.1340
     23 N         142.6036  142.1887  165.1637 N.ar    1  UNL1       -0.2884
     24 C         143.6537  142.9740  164.4354 C.ar    1  UNL1        0.1932
     25 N         144.5879  143.5556  165.4548 N.ar    1  UNL1       -0.1221
     26 N         144.1152  143.1297  166.8131 N.ar    1  UNL1       -0.1282
     27 C         142.8888  142.2848  166.6333 C.ar    1  UNL1        0.1678
     28 C         142.0882  141.6480  167.7304 C.2     1  UNL1        0.0488
     29 C         142.3528  140.2247  168.1227 C.2     1  UNL1       -0.0121
     30 C         141.5522  139.5879  169.2198 C.3     1  UNL1        0.1133
     31 C         140.4869  140.3746  169.9244 C.2     1  UNL1        0.2500
     32 O         139.6863  139.7378  171.0215 O.2     1  UNL1       -0.2726
     33 N         140.2223  141.7979  169.5321 N.am    1  UNL1       -0.1775
     34 C         141.0230  142.4347  168.4350 C.2     1  UNL1        0.0913
@<TRIPOS>BOND
     1    22    23    1
     2    23    24   ar
     3    24    21    1
     4    21    20    1
     5    20    19    1
     6    19     1    1
     7     1     2    1
     8     2     3    1
     9     3     4    1
    10     5     4    1
    11     5     6    1
    12     6     7    1
    13     7     9    1
    14     9    10   ar
    15    10    11   ar
    16    11    12   ar
    17    12    15    1
    18    15    16    1
    19    15    17    1
    20    15    18    1
    21    12    13   ar
    22    13    14   ar
    23     5     8    1
    24    24    25   ar
    25    25    26   ar
    26    26    27   ar
    27    27    28    1
    28    28    29    2
    29    29    30    1
    30    30    31    1
    31    31    32    2
    32    31    33    1
    33    33    34    2
    34    27    23   ar
    35    34    28    1
    36     8     2    1
    37     7     5    1
    38    14     9   ar
