@<TRIPOS>MOLECULE
*****
 24 27 0 0 0
SMALL
GASTEIGER

@<TRIPOS>ATOM
      1 N         140.0013  141.5968  164.3333 N.am    1  UNL1       -0.3011
      2 C         138.7991  142.0991  163.5900 C.2     1  UNL1        0.2653
      3 O         137.6084  142.6085  164.3467 O.2     1  UNL1       -0.2684
      4 H         140.7829  141.2625  163.8367 H       1  UNL1        0.1497
      5 C         139.9572  141.4243  166.5610 C.3     1  UNL1        0.0896
      6 N         140.0241  141.6110  167.3331 N.3     1  UNL1       -0.2740
      7 C         139.6187  140.3824  168.0921 C.3     1  UNL1        0.0591
      8 C         139.6301  140.3894  169.5920 C.3     1  UNL1        0.0161
      9 C         140.0469  141.6252  170.3330 C.3     1  UNL1        0.0028
     10 C         140.4524  142.8538  169.5741 C.3     1  UNL1        0.0161
     11 C         140.4410  142.8468  168.0742 C.3     1  UNL1        0.0591
     12 C         140.4296  142.8397  166.5742 C.3     1  UNL1        0.0356
     13 C         140.0127  141.6039  165.8333 C.3     1  UNL1        0.0746
     14 C         139.6073  140.3753  166.5921 C.3     1  UNL1        0.0356
     15 C         138.7877  142.0920  162.0901 C.ar    1  UNL1        0.1554
     16 N         138.2154  141.0142  161.2178 N.ar    1  UNL1       -0.1646
     17 N         138.4206  141.4175  159.7877 N.ar    1  UNL1       -0.2487
     18 C         138.0005  140.6317  158.5811 C.3     1  UNL1        0.1537
     19 C         139.1197  142.7446  159.7761 C.ar    1  UNL1        0.0795
     20 C         139.5790  143.6273  158.6537 C.ar    1  UNL1        0.0188
     21 C         140.2651  144.9268  158.9542 C.ar    1  UNL1        0.0015
     22 C         140.4920  145.3437  160.3772 C.ar    1  UNL1        0.0001
     23 C         140.0327  144.4610  161.4996 C.ar    1  UNL1        0.0032
     24 C         139.3465  143.1614  161.1991 C.ar    1  UNL1        0.0411
@<TRIPOS>BOND
     1     5     6    1
     2     6     7    1
     3     7     8    1
     4     8     9    1
     5     9    10    1
     6    10    11    1
     7    11    12    1
     8    12    13    1
     9    13     1    1
    10     1     2   am
    11     2     3    2
    12     2    15    1
    13    15    16   ar
    14    16    17   ar
    15    17    18    1
    16    17    19   ar
    17    19    20   ar
    18    20    21   ar
    19    21    22   ar
    20    22    23   ar
    21    23    24   ar
    22    13    14    1
    23    11     6    1
    24    24    15   ar
    25    14     7    1
    26    24    19   ar
    27     1     4    1
@<TRIPOS>MOLECULE
*****
 24 27 0 0 0
SMALL
GASTEIGER

@<TRIPOS>ATOM
      1 N         141.3215  141.6569  164.6848 N.am    1  UNL1       -0.3011
      2 C         140.7786  140.3033  164.3339 C.2     1  UNL1        0.2653
      3 O         140.4587  139.3191  165.4196 O.2     1  UNL1       -0.2684
      4 H         141.5315  142.3029  163.9722 H       1  UNL1        0.1497
      5 C         141.8343  142.1417  166.8053 C.3     1  UNL1        0.0896
      6 N         141.7674  142.3954  167.5580 N.3     1  UNL1       -0.2740
      7 C         143.1032  142.1536  168.1960 C.3     1  UNL1        0.0591
      8 C         143.3262  142.5229  169.6326 C.3     1  UNL1        0.0161
      9 C         142.2133  143.1339  170.4314 C.3     1  UNL1        0.0028
     10 C         140.8774  143.3757  169.7934 C.3     1  UNL1        0.0161
     11 C         140.6544  143.0065  168.3568 C.3     1  UNL1        0.0591
     12 C         140.4315  142.6372  166.9202 C.3     1  UNL1        0.0356
     13 C         141.5444  142.0262  166.1215 C.3     1  UNL1        0.0746
     14 C         142.8803  141.7844  166.7593 C.3     1  UNL1        0.0356
     15 C         140.5557  139.9340  162.8972 C.ar    1  UNL1        0.1554
     16 N         139.3341  140.2481  162.0855 N.ar    1  UNL1       -0.1646
     17 N         139.5387  139.6940  160.7067 N.ar    1  UNL1       -0.2487
     18 C         138.5660  139.7811  159.5681 C.3     1  UNL1        0.1537
     19 C         140.8868  139.0375  160.6662 C.ar    1  UNL1        0.0795
     20 C         141.6232  138.3239  159.5716 C.ar    1  UNL1        0.0188
     21 C         142.9882  137.7585  159.8307 C.ar    1  UNL1        0.0015
     22 C         143.6168  137.9069  161.1846 C.ar    1  UNL1        0.0001
     23 C         142.8804  138.6205  162.2793 C.ar    1  UNL1        0.0032
     24 C         141.5154  139.1859  162.0201 C.ar    1  UNL1        0.0411
@<TRIPOS>BOND
     1     5     6    1
     2     6     7    1
     3     7     8    1
     4     8     9    1
     5     9    10    1
     6    10    11    1
     7    11    12    1
     8    12    13    1
     9    13     1    1
    10     1     2   am
    11     2     3    2
    12     2    15    1
    13    15    16   ar
    14    16    17   ar
    15    17    18    1
    16    17    19   ar
    17    19    20   ar
    18    20    21   ar
    19    21    22   ar
    20    22    23   ar
    21    23    24   ar
    22    13    14    1
    23    11     6    1
    24    24    15   ar
    25    14     7    1
    26    24    19   ar
    27     1     4    1
@<TRIPOS>MOLECULE
*****
 24 27 0 0 0
SMALL
GASTEIGER

@<TRIPOS>ATOM
      1 N         141.5557  142.9141  163.6408 N.am    1  UNL1       -0.3011
      2 C         141.7515  144.2597  163.0075 C.2     1  UNL1        0.2653
      3 O         142.0296  145.4587  163.8648 O.2     1  UNL1       -0.2684
      4 H         141.3732  142.1271  163.0781 H       1  UNL1        0.1497
      5 C         141.4887  142.7328  165.8672 C.3     1  UNL1        0.0896
      6 N         141.7201  142.6210  166.6218 N.3     1  UNL1       -0.2740
      7 C         140.4888  142.7916  167.4613 C.3     1  UNL1        0.0591
      8 C         140.5709  142.6451  168.9519 C.3     1  UNL1        0.0161
      9 C         141.8845  142.3279  169.6030 C.3     1  UNL1        0.0028
     10 C         143.1158  142.1572  168.7635 C.3     1  UNL1        0.0161
     11 C         143.0337  142.3038  167.2730 C.3     1  UNL1        0.0591
     12 C         142.9515  142.4503  165.7824 C.3     1  UNL1        0.0356
     13 C         141.6379  142.7675  165.1313 C.3     1  UNL1        0.0746
     14 C         140.4066  142.9382  165.9707 C.3     1  UNL1        0.0356
     15 C         141.6693  144.4063  161.5169 C.ar    1  UNL1        0.1554
     16 N         140.6719  145.2382  160.7665 N.ar    1  UNL1       -0.1646
     17 N         140.9563  145.0927  159.3009 N.ar    1  UNL1       -0.2487
     18 C         140.2002  145.7530  158.1863 C.3     1  UNL1        0.1537
     19 C         142.1294  144.1709  159.1456 C.ar    1  UNL1        0.0795
     20 C         142.8533  143.6630  157.9339 C.ar    1  UNL1        0.0188
     21 C         144.0178  142.7310  158.0919 C.ar    1  UNL1        0.0015
     22 C         144.4585  142.3068  159.4616 C.ar    1  UNL1        0.0001
     23 C         143.7346  142.8146  160.6732 C.ar    1  UNL1        0.0032
     24 C         142.5701  143.7467  160.5152 C.ar    1  UNL1        0.0411
@<TRIPOS>BOND
     1     5     6    1
     2     6     7    1
     3     7     8    1
     4     8     9    1
     5     9    10    1
     6    10    11    1
     7    11    12    1
     8    12    13    1
     9    13     1    1
    10     1     2   am
    11     2     3    2
    12     2    15    1
    13    15    16   ar
    14    16    17   ar
    15    17    18    1
    16    17    19   ar
    17    19    20   ar
    18    20    21   ar
    19    21    22   ar
    20    22    23   ar
    21    23    24   ar
    22    13    14    1
    23    11     6    1
    24    24    15   ar
    25    14     7    1
    26    24    19   ar
    27     1     4    1
@<TRIPOS>MOLECULE
*****
 24 27 0 0 0
SMALL
GASTEIGER

@<TRIPOS>ATOM
      1 N         141.0763  139.8583  164.6993 N.am    1  UNL1       -0.3011
      2 C         140.8523  138.5728  163.9593 C.2     1  UNL1        0.2653
      3 O         140.5437  137.3155  164.7167 O.2     1  UNL1       -0.2684
      4 H         141.2789  140.6836  164.2022 H       1  UNL1        0.1497
      5 C         141.1380  139.8552  166.9333 C.3     1  UNL1        0.0896
      6 N         140.9070  139.9143  167.6939 N.3     1  UNL1       -0.2740
      7 C         142.1260  139.6274  168.5195 C.3     1  UNL1        0.0591
      8 C         142.0414  139.6554  170.0169 C.3     1  UNL1        0.0161
      9 C         140.7377  139.9703  170.6886 C.3     1  UNL1        0.0028
     10 C         139.5187  140.2572  169.8630 C.3     1  UNL1        0.0161
     11 C         139.6032  140.2293  168.3657 C.3     1  UNL1        0.0591
     12 C         139.6879  140.2013  166.8684 C.3     1  UNL1        0.0356
     13 C         140.9916  139.8863  166.1966 C.3     1  UNL1        0.0746
     14 C         142.2106  139.5994  167.0222 C.3     1  UNL1        0.0356
     15 C         140.9370  138.5448  162.4619 C.ar    1  UNL1        0.1554
     16 N         142.0760  137.9983  161.6534 N.ar    1  UNL1       -0.1646
     17 N         141.7405  138.1742  160.2020 N.ar    1  UNL1       -0.2487
     18 C         142.6003  137.7664  159.0425 C.3     1  UNL1        0.1537
     19 C         140.3940  138.8294  160.1136 C.ar    1  UNL1        0.0795
     20 C         139.5560  139.2470  158.9417 C.ar    1  UNL1        0.0188
     21 C         138.2215  139.8937  159.1666 C.ar    1  UNL1        0.0015
     22 C         137.7249  140.1228  160.5634 C.ar    1  UNL1        0.0001
     23 C         138.5629  139.7052  161.7352 C.ar    1  UNL1        0.0032
     24 C         139.8974  139.0585  161.5104 C.ar    1  UNL1        0.0411
@<TRIPOS>BOND
     1     5     6    1
     2     6     7    1
     3     7     8    1
     4     8     9    1
     5     9    10    1
     6    10    11    1
     7    11    12    1
     8    12    13    1
     9    13     1    1
    10     1     2   am
    11     2     3    2
    12     2    15    1
    13    15    16   ar
    14    16    17   ar
    15    17    18    1
    16    17    19   ar
    17    19    20   ar
    18    20    21   ar
    19    21    22   ar
    20    22    23   ar
    21    23    24   ar
    22    13    14    1
    23    11     6    1
    24    24    15   ar
    25    14     7    1
    26    24    19   ar
    27     1     4    1
@<TRIPOS>MOLECULE
*****
 24 27 0 0 0
SMALL
GASTEIGER

@<TRIPOS>ATOM
      1 N         142.7201  141.1741  164.2310 N.am    1  UNL1       -0.3011
      2 C         143.9404  140.8430  163.4238 C.2     1  UNL1        0.2653
      3 O         145.2041  140.4218  164.1134 O.2     1  UNL1       -0.2684
      4 H         141.8906  141.4505  163.7785 H       1  UNL1        0.1497
      5 C         142.7314  140.8551  166.4429 C.3     1  UNL1        0.0896
      6 N         142.8072  140.9937  167.2242 N.3     1  UNL1       -0.2740
      7 C         142.4696  139.7020  167.9079 C.3     1  UNL1        0.0591
      8 C         142.5131  139.6117  169.4046 C.3     1  UNL1        0.0161
      9 C         142.8943  140.8133  170.2176 C.3     1  UNL1        0.0028
     10 C         143.2319  142.1050  169.5339 C.3     1  UNL1        0.0161
     11 C         143.1884  142.1953  168.0373 C.3     1  UNL1        0.0591
     12 C         143.1448  142.2855  166.5406 C.3     1  UNL1        0.0356
     13 C         142.7637  141.0839  165.7277 C.3     1  UNL1        0.0746
     14 C         142.4260  139.7922  166.4113 C.3     1  UNL1        0.0356
     15 C         143.8968  140.9332  161.9272 C.ar    1  UNL1        0.1554
     16 N         144.2363  142.1419  161.1065 N.ar    1  UNL1       -0.1646
     17 N         144.0554  141.7862  159.6606 N.ar    1  UNL1       -0.2487
     18 C         144.2854  142.6988  158.4926 C.3     1  UNL1        0.1537
     19 C         143.6041  140.3575  159.5876 C.ar    1  UNL1        0.0795
     20 C         143.2698  139.4686  158.4266 C.ar    1  UNL1        0.0188
     21 C         142.8374  138.0525  158.6665 C.ar    1  UNL1        0.0015
     22 C         142.7394  137.5253  160.0674 C.ar    1  UNL1        0.0001
     23 C         143.0737  138.4142  161.2284 C.ar    1  UNL1        0.0032
     24 C         143.5061  139.8303  160.9885 C.ar    1  UNL1        0.0411
@<TRIPOS>BOND
     1     5     6    1
     2     6     7    1
     3     7     8    1
     4     8     9    1
     5     9    10    1
     6    10    11    1
     7    11    12    1
     8    12    13    1
     9    13     1    1
    10     1     2   am
    11     2     3    2
    12     2    15    1
    13    15    16   ar
    14    16    17   ar
    15    17    18    1
    16    17    19   ar
    17    19    20   ar
    18    20    21   ar
    19    21    22   ar
    20    22    23   ar
    21    23    24   ar
    22    13    14    1
    23    11     6    1
    24    24    15   ar
    25    14     7    1
    26    24    19   ar
    27     1     4    1
@<TRIPOS>MOLECULE
*****
 24 27 0 0 0
SMALL
GASTEIGER

@<TRIPOS>ATOM
      1 N         141.7134  141.9717  165.3265 N.am    1  UNL1       -0.3011
      2 C         142.7925  142.7955  164.6884 C.2     1  UNL1        0.2653
      3 O         143.9239  143.3230  165.5200 O.2     1  UNL1       -0.2684
      4 H         140.9708  141.6254  164.7807 H       1  UNL1        0.1497
      5 C         141.6774  141.6838  167.5424 C.3     1  UNL1        0.0896
      6 N         141.8183  141.3792  168.2654 N.3     1  UNL1       -0.2740
      7 C         141.0782  142.2537  169.2337 C.3     1  UNL1        0.0591
      8 C         141.1306  141.9575  170.7033 C.3     1  UNL1        0.0161
      9 C         141.9232  140.7868  171.2045 C.3     1  UNL1        0.0028
     10 C         142.6633  139.9124  170.2363 C.3     1  UNL1        0.0161
     11 C         142.6109  140.2085  168.7668 C.3     1  UNL1        0.0591
     12 C         142.5585  140.5047  167.2973 C.3     1  UNL1        0.0356
     13 C         141.7659  141.6754  166.7960 C.3     1  UNL1        0.0746
     14 C         141.0257  142.5499  167.7642 C.3     1  UNL1        0.0356
     15 C         142.7400  143.0918  163.2189 C.ar    1  UNL1        0.1554
     16 N         143.6175  142.4840  162.1651 N.ar    1  UNL1       -0.1646
     17 N         143.2206  143.0644  160.8401 N.ar    1  UNL1       -0.2487
     18 C         143.8381  142.7360  159.5131 C.3     1  UNL1        0.1537
     19 C         142.0978  144.0309  161.0751 C.ar    1  UNL1        0.0795
     20 C         141.3075  144.8978  160.1402 C.ar    1  UNL1        0.0188
     21 C         140.2202  145.7815  160.6756 C.ar    1  UNL1        0.0015
     22 C         139.9232  145.7984  162.1458 C.ar    1  UNL1        0.0001
     23 C         140.7134  144.9316  163.0806 C.ar    1  UNL1        0.0032
     24 C         141.8008  144.0478  162.5452 C.ar    1  UNL1        0.0411
@<TRIPOS>BOND
     1     5     6    1
     2     6     7    1
     3     7     8    1
     4     8     9    1
     5     9    10    1
     6    10    11    1
     7    11    12    1
     8    12    13    1
     9    13     1    1
    10     1     2   am
    11     2     3    2
    12     2    15    1
    13    15    16   ar
    14    16    17   ar
    15    17    18    1
    16    17    19   ar
    17    19    20   ar
    18    20    21   ar
    19    21    22   ar
    20    22    23   ar
    21    23    24   ar
    22    13    14    1
    23    11     6    1
    24    24    15   ar
    25    14     7    1
    26    24    19   ar
    27     1     4    1
@<TRIPOS>MOLECULE
*****
 24 27 0 0 0
SMALL
GASTEIGER

@<TRIPOS>ATOM
      1 N         138.5945  142.1553  162.9390 N.am    1  UNL1       -0.3011
      2 C         139.5617  141.2214  163.6043 C.2     1  UNL1        0.2653
      3 O         140.8947  140.9480  162.9734 O.2     1  UNL1       -0.2684
      4 H         137.7195  142.3348  163.3530 H       1  UNL1        0.1497
      5 C         139.0459  142.9960  160.9181 C.3     1  UNL1        0.0896
      6 N         139.3264  143.4757  160.3466 N.3     1  UNL1       -0.2740
      7 C         138.8913  142.8678  159.0462 C.3     1  UNL1        0.0591
      8 C         139.2572  143.5280  157.7499 C.3     1  UNL1        0.0161
      9 C         140.0583  144.7962  157.7542 C.3     1  UNL1        0.0028
     10 C         140.4933  145.4041  159.0546 C.3     1  UNL1        0.0161
     11 C         140.1275  144.7440  160.3508 C.3     1  UNL1        0.0591
     12 C         139.7615  144.0837  161.6470 C.3     1  UNL1        0.0356
     13 C         138.9604  142.8155  161.6428 C.3     1  UNL1        0.0746
     14 C         138.5253  142.2076  160.3424 C.3     1  UNL1        0.0356
     15 C         139.1957  140.5612  164.9005 C.ar    1  UNL1        0.1554
     16 N         138.2790  139.3850  165.0629 N.ar    1  UNL1       -0.1646
     17 N         138.1990  139.0582  166.5247 N.ar    1  UNL1       -0.2487
     18 C         137.3932  137.9515  167.1378 C.3     1  UNL1        0.1537
     19 C         139.0662  140.0323  167.2657 C.ar    1  UNL1        0.0795
     20 C         139.3745  140.1934  168.7248 C.ar    1  UNL1        0.0188
     21 C         140.2988  141.2835  169.1801 C.ar    1  UNL1        0.0015
     22 C         140.9148  142.2124  168.1763 C.ar    1  UNL1        0.0001
     23 C         140.6065  142.0513  166.7172 C.ar    1  UNL1        0.0032
     24 C         139.6822  140.9612  166.2619 C.ar    1  UNL1        0.0411
@<TRIPOS>BOND
     1     5     6    1
     2     6     7    1
     3     7     8    1
     4     8     9    1
     5     9    10    1
     6    10    11    1
     7    11    12    1
     8    12    13    1
     9    13     1    1
    10     1     2   am
    11     2     3    2
    12     2    15    1
    13    15    16   ar
    14    16    17   ar
    15    17    18    1
    16    17    19   ar
    17    19    20   ar
    18    20    21   ar
    19    21    22   ar
    20    22    23   ar
    21    23    24   ar
    22    13    14    1
    23    11     6    1
    24    24    15   ar
    25    14     7    1
    26    24    19   ar
    27     1     4    1
@<TRIPOS>MOLECULE
*****
 24 27 0 0 0
SMALL
GASTEIGER

@<TRIPOS>ATOM
      1 N         140.8005  139.3601  165.3850 N.am    1  UNL1       -0.3011
      2 C         140.8335  140.4165  164.3205 C.2     1  UNL1        0.2653
      3 O         141.0967  141.8460  164.6906 O.2     1  UNL1       -0.2684
      4 H         140.6277  138.4218  165.1421 H       1  UNL1        0.1497
      5 C         140.9519  139.9356  167.5391 C.3     1  UNL1        0.0896
      6 N         141.2607  140.1066  168.2539 N.3     1  UNL1       -0.2740
      7 C         140.0957  140.4377  169.1388 C.3     1  UNL1        0.0591
      8 C         140.3257  140.8110  170.5734 C.3     1  UNL1        0.0161
      9 C         141.7208  140.8531  171.1229 C.3     1  UNL1        0.0028
     10 C         142.8858  140.5219  170.2379 C.3     1  UNL1        0.0161
     11 C         142.6558  140.1487  168.8035 C.3     1  UNL1        0.0591
     12 C         142.4257  139.7754  167.3690 C.3     1  UNL1        0.0356
     13 C         141.0306  139.7333  166.8195 C.3     1  UNL1        0.0746
     14 C         139.8656  140.0645  167.7043 C.3     1  UNL1        0.0356
     15 C         140.6034  140.0433  162.8860 C.ar    1  UNL1        0.1554
     16 N         139.3961  140.3919  162.0670 N.ar    1  UNL1       -0.1646
     17 N         139.5868  139.8199  160.6936 N.ar    1  UNL1       -0.2487
     18 C         138.6217  139.9306  159.5506 C.3     1  UNL1        0.1537
     19 C         140.9120  139.1178  160.6637 C.ar    1  UNL1        0.0795
     20 C         141.6277  138.3706  159.5777 C.ar    1  UNL1        0.0188
     21 C         142.9717  137.7615  159.8467 C.ar    1  UNL1        0.0015
     22 C         143.6001  137.8995  161.2017 C.ar    1  UNL1        0.0001
     23 C         142.8843  138.6467  162.2877 C.ar    1  UNL1        0.0032
     24 C         141.5403  139.2558  162.0187 C.ar    1  UNL1        0.0411
@<TRIPOS>BOND
     1     5     6    1
     2     6     7    1
     3     7     8    1
     4     8     9    1
     5     9    10    1
     6    10    11    1
     7    11    12    1
     8    12    13    1
     9    13     1    1
    10     1     2   am
    11     2     3    2
    12     2    15    1
    13    15    16   ar
    14    16    17   ar
    15    17    18    1
    16    17    19   ar
    17    19    20   ar
    18    20    21   ar
    19    21    22   ar
    20    22    23   ar
    21    23    24   ar
    22    13    14    1
    23    11     6    1
    24    24    15   ar
    25    14     7    1
    26    24    19   ar
    27     1     4    1
@<TRIPOS>MOLECULE
*****
 24 27 0 0 0
SMALL
GASTEIGER

@<TRIPOS>ATOM
      1 N         141.6864  145.4778  159.3758 N.am    1  UNL1       -0.3011
      2 C         140.9846  144.3797  160.1187 C.2     1  UNL1        0.2653
      3 O         140.0378  143.4699  159.3938 O.2     1  UNL1       -0.2684
      4 H         142.3079  146.0750  159.8515 H       1  UNL1        0.1497
      5 C         141.1610  145.8553  157.2366 C.3     1  UNL1        0.0896
      6 N         141.1958  145.8541  156.4403 N.3     1  UNL1       -0.2740
      7 C         139.9874  146.6097  155.9726 C.3     1  UNL1        0.0591
      8 C         139.7421  146.7980  154.5048 C.3     1  UNL1        0.0161
      9 C         140.7053  146.2305  153.5046 C.3     1  UNL1        0.0028
     10 C         141.9137  145.4748  153.9723 C.3     1  UNL1        0.0161
     11 C         142.1590  145.2866  155.4400 C.3     1  UNL1        0.0591
     12 C         142.4043  145.0985  156.9078 C.3     1  UNL1        0.0356
     13 C         141.4411  145.6659  157.9080 C.3     1  UNL1        0.0746
     14 C         140.2327  146.4216  157.4404 C.3     1  UNL1        0.0356
     15 C         141.2299  144.1915  161.5866 C.ar    1  UNL1        0.1554
     16 N         142.5665  143.9992  162.2396 N.ar    1  UNL1       -0.1646
     17 N         142.3442  143.8515  163.7156 N.ar    1  UNL1       -0.2487
     18 C         143.4090  143.6398  164.7508 C.3     1  UNL1        0.1537
     19 C         140.8702  143.9525  163.9749 C.ar    1  UNL1        0.0795
     20 C         140.0662  143.8803  165.2391 C.ar    1  UNL1        0.0188
     21 C         138.5735  144.0183  165.1874 C.ar    1  UNL1        0.0015
     22 C         137.8848  144.2285  163.8716 C.ar    1  UNL1        0.0001
     23 C         138.6888  144.3007  162.6074 C.ar    1  UNL1        0.0032
     24 C         140.1815  144.1627  162.6590 C.ar    1  UNL1        0.0411
@<TRIPOS>BOND
     1     5     6    1
     2     6     7    1
     3     7     8    1
     4     8     9    1
     5     9    10    1
     6    10    11    1
     7    11    12    1
     8    12    13    1
     9    13     1    1
    10     1     2   am
    11     2     3    2
    12     2    15    1
    13    15    16   ar
    14    16    17   ar
    15    17    18    1
    16    17    19   ar
    17    19    20   ar
    18    20    21   ar
    19    21    22   ar
    20    22    23   ar
    21    23    24   ar
    22    13    14    1
    23    11     6    1
    24    24    15   ar
    25    14     7    1
    26    24    19   ar
    27     1     4    1
