@<TRIPOS>MOLECULE
*****
 34 38 0 0 0
SMALL
GASTEIGER

@<TRIPOS>ATOM
      1 C         140.6657  145.3455  160.2390 C.3     1  UNL1        0.0019
      2 C         139.9829  144.5544  159.1629 C.3     1  UNL1        0.0173
      3 C         140.1697  143.0677  159.0918 C.3     1  UNL1        0.0722
      4 N         139.2106  140.5062  162.6651 N.pl3   1  UNL1       -0.3023
      5 C         138.1153  140.9359  161.7347 C.3     1  UNL1        0.1082
      6 C         138.4350  141.7898  160.5436 C.3     1  UNL1        0.0938
      7 N         139.8500  142.2139  160.2829 N.3     1  UNL1       -0.2698
      8 C         140.9453  141.7841  161.2133 C.3     1  UNL1        0.0938
      9 C         140.6256  140.9303  162.4044 C.3     1  UNL1        0.1082
     10 C         139.1555  138.1765  163.8137 C.ar    1  UNL1        0.1519
     11 C         138.8359  137.3226  165.0048 C.ar    1  UNL1        0.0382
     12 C         138.2517  137.9445  166.2384 C.ar    1  UNL1        0.0032
     13 C         137.9872  139.4204  166.2810 C.ar    1  UNL1        0.0015
     14 C         138.3068  140.2743  165.0899 C.ar    1  UNL1        0.0176
     15 C         138.8909  139.6523  163.8562 C.ar    1  UNL1        0.0824
     16 C         141.2270  137.5233  162.3881 C.3     1  UNL1        0.2525
     17 O         139.7397  137.5544  162.5800 O.3     1  UNL1       -0.4702
     18 C         140.0812  145.3940  161.6195 C.3     1  UNL1        0.0099
     19 C         140.9848  145.4763  162.8140 C.3     1  UNL1        0.0885
     20 C         140.6526  144.7098  164.0600 C.2     1  UNL1        0.2412
     21 O         139.3924  145.0145  164.8143 O.2     1  UNL1       -0.2716
     22 N         141.5806  143.6387  164.5515 N.ar    1  UNL1       -0.2780
     23 C         141.3822  142.7935  165.7747 C.ar    1  UNL1        0.0665
     24 C         140.2900  142.7554  166.8021 C.ar    1  UNL1        0.0176
     25 C         140.3645  141.7811  167.9401 C.ar    1  UNL1        0.0015
     26 C         141.5311  140.8448  168.0507 C.ar    1  UNL1        0.0001
     27 C         142.6234  140.8829  167.0233 C.ar    1  UNL1        0.0015
     28 C         142.5489  141.8572  165.8853 C.ar    1  UNL1        0.0176
     29 C         143.4683  142.1238  164.7305 C.ar    1  UNL1        0.0176
     30 C         144.7731  141.5062  164.3230 C.ar    1  UNL1        0.0015
     31 C         145.4794  141.9897  163.0912 C.ar    1  UNL1        0.0001
     32 C         144.8810  143.0907  162.2668 C.ar    1  UNL1        0.0015
     33 C         143.5762  143.7083  162.6743 C.ar    1  UNL1        0.0176
     34 C         142.8698  143.2248  163.9061 C.ar    1  UNL1        0.0665
@<TRIPOS>BOND
     1    16    17    1
     2    17    10    1
     3    10    11   ar
     4    11    12   ar
     5    12    13   ar
     6    13    14   ar
     7    14    15   ar
     8    15     4    1
     9     4     5    1
    10     5     6    1
    11     6     7    1
    12     7     3    1
    13     3     2    1
    14     2     1    1
    15     1    18    1
    16    18    19    1
    17    19    20    1
    18    20    21    2
    19    20    22   am
    20    22    23   ar
    21    23    24   ar
    22    24    25   ar
    23    25    26   ar
    24    26    27   ar
    25    27    28   ar
    26    28    29   ar
    27    29    30   ar
    28    30    31   ar
    29    31    32   ar
    30    32    33   ar
    31    33    34   ar
    32     7     8    1
    33     8     9    1
    34    15    10   ar
    35     9     4    1
    36    34    22   ar
    37    28    23   ar
    38    34    29   ar
@<TRIPOS>MOLECULE
*****
 34 38 0 0 0
SMALL
GASTEIGER

@<TRIPOS>ATOM
      1 C         141.5039  143.0203  159.8328 C.3     1  UNL1        0.0019
      2 C         142.7438  143.2157  160.6540 C.3     1  UNL1        0.0173
      3 C         142.7028  144.0780  161.8808 C.3     1  UNL1        0.0722
      4 N         142.7616  142.1867  165.9635 N.pl3   1  UNL1       -0.3023
      5 C         143.9474  142.0476  165.0555 C.3     1  UNL1        0.1082
      6 C         143.9278  142.6781  163.6945 C.3     1  UNL1        0.0938
      7 N         142.7224  143.4476  163.2417 N.3     1  UNL1       -0.2698
      8 C         141.5367  143.5866  164.1498 C.3     1  UNL1        0.0938
      9 C         141.5563  142.9562  165.5107 C.3     1  UNL1        0.1082
     10 C         142.2585  140.1630  167.5132 C.ar    1  UNL1        0.1519
     11 C         142.2780  139.5325  168.8741 C.ar    1  UNL1        0.0382
     12 C         142.8202  140.2952  170.0463 C.ar    1  UNL1        0.0032
     13 C         143.3429  141.6885  169.8577 C.ar    1  UNL1        0.0015
     14 C         143.3234  142.3190  168.4968 C.ar    1  UNL1        0.0176
     15 C         142.7812  141.5563  167.3245 C.ar    1  UNL1        0.0824
     16 C         142.5978  138.4408  165.5978 C.3     1  UNL1        0.2525
     17 O         141.7162  139.4001  166.3409 O.3     1  UNL1       -0.4702
     18 C         141.1012  141.6420  159.3991 C.3     1  UNL1        0.0099
     19 C         139.7559  141.0989  159.7803 C.3     1  UNL1        0.0885
     20 C         139.6450  140.0532  160.8501 C.2     1  UNL1        0.2412
     21 O         140.0453  138.6373  160.5590 O.2     1  UNL1       -0.2716
     22 N         139.1338  140.4235  162.2108 N.ar    1  UNL1       -0.2780
     23 C         138.9684  139.4913  163.3743 C.ar    1  UNL1        0.0665
     24 C         139.2381  138.0242  163.5311 C.ar    1  UNL1        0.0176
     25 C         138.9700  137.3484  164.8430 C.ar    1  UNL1        0.0015
     26 C         138.4321  138.1397  165.9982 C.ar    1  UNL1        0.0001
     27 C         138.1625  139.6069  165.8414 C.ar    1  UNL1        0.0015
     28 C         138.4306  140.2827  164.5295 C.ar    1  UNL1        0.0176
     29 C         138.2636  141.7040  164.0799 C.ar    1  UNL1        0.0176
     30 C         137.7719  142.9302  164.7903 C.ar    1  UNL1        0.0015
     31 C         137.7148  144.2434  164.0676 C.ar    1  UNL1        0.0001
     32 C         138.1493  144.3304  162.6346 C.ar    1  UNL1        0.0015
     33 C         138.6410  143.1043  161.9242 C.ar    1  UNL1        0.0176
     34 C         138.6981  141.7910  162.6469 C.ar    1  UNL1        0.0665
@<TRIPOS>BOND
     1    16    17    1
     2    17    10    1
     3    10    11   ar
     4    11    12   ar
     5    12    13   ar
     6    13    14   ar
     7    14    15   ar
     8    15     4    1
     9     4     5    1
    10     5     6    1
    11     6     7    1
    12     7     3    1
    13     3     2    1
    14     2     1    1
    15     1    18    1
    16    18    19    1
    17    19    20    1
    18    20    21    2
    19    20    22   am
    20    22    23   ar
    21    23    24   ar
    22    24    25   ar
    23    25    26   ar
    24    26    27   ar
    25    27    28   ar
    26    28    29   ar
    27    29    30   ar
    28    30    31   ar
    29    31    32   ar
    30    32    33   ar
    31    33    34   ar
    32     7     8    1
    33     8     9    1
    34    15    10   ar
    35     9     4    1
    36    34    22   ar
    37    28    23   ar
    38    34    29   ar
@<TRIPOS>MOLECULE
*****
 34 38 0 0 0
SMALL
GASTEIGER

@<TRIPOS>ATOM
      1 C         138.3039  138.3186  161.3642 C.3     1  UNL1        0.0019
      2 C         138.5991  137.8754  162.7665 C.3     1  UNL1        0.0173
      3 C         140.0187  137.7946  163.2444 C.3     1  UNL1        0.0722
      4 N         141.2858  140.0537  166.9241 N.pl3   1  UNL1       -0.3023
      5 C         142.2503  139.1288  166.2428 C.3     1  UNL1        0.1082
      6 C         141.8279  138.3758  165.0162 C.3     1  UNL1        0.0938
      7 N         140.4411  138.5477  164.4710 N.3     1  UNL1       -0.2698
      8 C         139.4766  139.4726  165.1524 C.3     1  UNL1        0.0938
      9 C         139.8990  140.2256  166.3789 C.3     1  UNL1        0.1082
     10 C         140.9572  140.6271  169.4367 C.ar    1  UNL1        0.1519
     11 C         141.3794  141.3801  170.6634 C.ar    1  UNL1        0.0382
     12 C         142.5526  142.3130  170.6040 C.ar    1  UNL1        0.0032
     13 C         143.3035  142.4927  169.3180 C.ar    1  UNL1        0.0015
     14 C         142.8812  141.7397  168.0914 C.ar    1  UNL1        0.0176
     15 C         141.7081  140.8068  168.1507 C.ar    1  UNL1        0.0824
     16 C         138.4683  140.1770  170.0305 C.3     1  UNL1        0.2525
     17 O         139.7840  139.6942  169.4962 O.3     1  UNL1       -0.4702
     18 C         137.8156  139.7131  161.1055 C.3     1  UNL1        0.0099
     19 C         138.7887  140.7905  160.7281 C.3     1  UNL1        0.0885
     20 C         140.1967  140.7435  161.2432 C.2     1  UNL1        0.2412
     21 O         141.2032  139.8410  160.5935 O.2     1  UNL1       -0.2716
     22 N         140.5981  141.5991  162.4081 N.ar    1  UNL1       -0.2780
     23 C         141.9619  141.6585  163.0298 C.ar    1  UNL1        0.0665
     24 C         143.2420  140.9443  162.7116 C.ar    1  UNL1        0.0176
     25 C         144.4731  141.2133  163.5252 C.ar    1  UNL1        0.0015
     26 C         144.4241  142.1965  164.6571 C.ar    1  UNL1        0.0001
     27 C         143.1440  142.9106  164.9753 C.ar    1  UNL1        0.0015
     28 C         141.9129  142.6416  164.1617 C.ar    1  UNL1        0.0176
     29 C         140.5188  143.1898  164.2394 C.ar    1  UNL1        0.0176
     30 C         139.8843  144.1924  165.1570 C.ar    1  UNL1        0.0015
     31 C         138.4372  144.5508  164.9909 C.ar    1  UNL1        0.0001
     32 C         137.6246  143.9065  163.9071 C.ar    1  UNL1        0.0015
     33 C         138.2591  142.9039  162.9894 C.ar    1  UNL1        0.0176
     34 C         139.7062  142.5455  163.1556 C.ar    1  UNL1        0.0665
@<TRIPOS>BOND
     1    16    17    1
     2    17    10    1
     3    10    11   ar
     4    11    12   ar
     5    12    13   ar
     6    13    14   ar
     7    14    15   ar
     8    15     4    1
     9     4     5    1
    10     5     6    1
    11     6     7    1
    12     7     3    1
    13     3     2    1
    14     2     1    1
    15     1    18    1
    16    18    19    1
    17    19    20    1
    18    20    21    2
    19    20    22   am
    20    22    23   ar
    21    23    24   ar
    22    24    25   ar
    23    25    26   ar
    24    26    27   ar
    25    27    28   ar
    26    28    29   ar
    27    29    30   ar
    28    30    31   ar
    29    31    32   ar
    30    32    33   ar
    31    33    34   ar
    32     7     8    1
    33     8     9    1
    34    15    10   ar
    35     9     4    1
    36    34    22   ar
    37    28    23   ar
    38    34    29   ar
@<TRIPOS>MOLECULE
*****
 34 38 0 0 0
SMALL
GASTEIGER

@<TRIPOS>ATOM
      1 C         140.0932  145.3247  161.2257 C.3     1  UNL1        0.0019
      2 C         139.3793  145.4009  162.5427 C.3     1  UNL1        0.0173
      3 C         138.6734  144.1931  163.0842 C.3     1  UNL1        0.0722
      4 N         140.6090  141.7084  166.2981 N.pl3   1  UNL1       -0.3023
      5 C         141.3273  142.8993  165.7363 C.3     1  UNL1        0.1082
      6 C         140.6821  143.7276  164.6649 C.3     1  UNL1        0.0938
      7 N         139.3186  143.3648  164.1555 N.3     1  UNL1       -0.2698
      8 C         138.6004  142.1739  164.7174 C.3     1  UNL1        0.0938
      9 C         139.2456  141.3457  165.7887 C.3     1  UNL1        0.1082
     10 C         140.9077  141.1151  168.8098 C.ar    1  UNL1        0.1519
     11 C         141.5528  140.2868  169.8812 C.ar    1  UNL1        0.0382
     12 C         142.5443  139.2235  169.5122 C.ar    1  UNL1        0.0032
     13 C         142.8908  138.9885  168.0718 C.ar    1  UNL1        0.0015
     14 C         142.2457  139.8167  167.0004 C.ar    1  UNL1        0.0176
     15 C         141.2542  140.8801  167.3694 C.ar    1  UNL1        0.0824
     16 C         140.3934  143.5445  169.5738 C.3     1  UNL1        0.2525
     17 O         139.9161  142.1784  169.1789 O.3     1  UNL1       -0.4702
     18 C         141.4504  144.6912  161.1440 C.3     1  UNL1        0.0099
     19 C         141.6139  143.3498  160.4928 C.3     1  UNL1        0.0885
     20 C         140.8301  142.1727  160.9930 C.2     1  UNL1        0.2412
     21 O         139.4152  141.9666  160.5399 O.2     1  UNL1       -0.2716
     22 N         141.4614  141.2017  161.9464 N.ar    1  UNL1       -0.2780
     23 C         140.8054  139.9850  162.5287 C.ar    1  UNL1        0.0665
     24 C         139.4324  139.4057  162.3571 C.ar    1  UNL1        0.0176
     25 C         139.0522  138.1498  163.0838 C.ar    1  UNL1        0.0015
     26 C         140.0448  137.4732  163.9820 C.ar    1  UNL1        0.0001
     27 C         141.4177  138.0525  164.1536 C.ar    1  UNL1        0.0015
     28 C         141.7980  139.3083  163.4270 C.ar    1  UNL1        0.0176
     29 C         143.0674  140.1070  163.3997 C.ar    1  UNL1        0.0176
     30 C         144.3860  139.9198  164.0900 C.ar    1  UNL1        0.0015
     31 C         145.4964  140.9028  163.8651 C.ar    1  UNL1        0.0001
     32 C         145.2884  142.0730  162.9501 C.ar    1  UNL1        0.0015
     33 C         143.9699  142.2602  162.2598 C.ar    1  UNL1        0.0176
     34 C         142.8594  141.2772  162.4847 C.ar    1  UNL1        0.0665
@<TRIPOS>BOND
     1    16    17    1
     2    17    10    1
     3    10    11   ar
     4    11    12   ar
     5    12    13   ar
     6    13    14   ar
     7    14    15   ar
     8    15     4    1
     9     4     5    1
    10     5     6    1
    11     6     7    1
    12     7     3    1
    13     3     2    1
    14     2     1    1
    15     1    18    1
    16    18    19    1
    17    19    20    1
    18    20    21    2
    19    20    22   am
    20    22    23   ar
    21    23    24   ar
    22    24    25   ar
    23    25    26   ar
    24    26    27   ar
    25    27    28   ar
    26    28    29   ar
    27    29    30   ar
    28    30    31   ar
    29    31    32   ar
    30    32    33   ar
    31    33    34   ar
    32     7     8    1
    33     8     9    1
    34    15    10   ar
    35     9     4    1
    36    34    22   ar
    37    28    23   ar
    38    34    29   ar
@<TRIPOS>MOLECULE
*****
 34 38 0 0 0
SMALL
GASTEIGER

@<TRIPOS>ATOM
      1 C         143.7773  138.9226  160.7704 C.3     1  UNL1        0.0019
      2 C         144.0577  139.7417  161.9953 C.3     1  UNL1        0.0173
      3 C         144.2604  139.0661  163.3192 C.3     1  UNL1        0.0722
      4 N         142.1000  140.5720  166.9681 N.pl3   1  UNL1       -0.3023
      5 C         142.0299  141.3432  165.6834 C.3     1  UNL1        0.1082
      6 C         142.7501  140.8412  164.4671 C.3     1  UNL1        0.0938
      7 N         143.5403  139.5681  164.5355 N.3     1  UNL1       -0.2698
      8 C         143.6104  138.7969  165.8201 C.3     1  UNL1        0.0938
      9 C         142.8902  139.2989  167.0364 C.3     1  UNL1        0.1082
     10 C         142.0333  142.0856  169.0787 C.ar    1  UNL1        0.1519
     11 C         141.3133  142.5876  170.2951 C.ar    1  UNL1        0.0382
     12 C         139.9398  142.0779  170.6172 C.ar    1  UNL1        0.0032
     13 C         139.2864  141.0663  169.7230 C.ar    1  UNL1        0.0015
     14 C         140.0064  140.5644  168.5066 C.ar    1  UNL1        0.0176
     15 C         141.3799  141.0740  168.1844 C.ar    1  UNL1        0.0824
     16 C         144.4367  142.7124  169.8408 C.3     1  UNL1        0.2525
     17 O         143.4069  142.5953  168.7566 O.3     1  UNL1       -0.4702
     18 C         142.5055  139.1320  160.0032 C.3     1  UNL1        0.0099
     19 C         141.2004  139.2511  160.7329 C.3     1  UNL1        0.0885
     20 C         140.6416  140.6057  161.0541 C.2     1  UNL1        0.2412
     21 O         140.8872  141.7577  160.1254 O.2     1  UNL1       -0.2716
     22 N         139.8373  140.8081  162.3039 N.ar    1  UNL1       -0.2780
     23 C         139.2183  142.0979  162.7548 C.ar    1  UNL1        0.0665
     24 C         139.2086  143.4713  162.1518 C.ar    1  UNL1        0.0176
     25 C         138.4899  144.5901  162.8459 C.ar    1  UNL1        0.0015
     26 C         137.7809  144.3354  164.1429 C.ar    1  UNL1        0.0001
     27 C         137.7905  142.9620  164.7459 C.ar    1  UNL1        0.0015
     28 C         138.5092  141.8433  164.0518 C.ar    1  UNL1        0.0176
     29 C         138.6901  140.3961  164.4026 C.ar    1  UNL1        0.0176
     30 C         138.2134  139.5782  165.5661 C.ar    1  UNL1        0.0015
     31 C         138.5575  138.1206  165.6494 C.ar    1  UNL1        0.0001
     32 C         139.3783  137.4808  164.5691 C.ar    1  UNL1        0.0015
     33 C         139.8550  138.2987  163.4056 C.ar    1  UNL1        0.0176
     34 C         139.5109  139.7563  163.3223 C.ar    1  UNL1        0.0665
@<TRIPOS>BOND
     1    16    17    1
     2    17    10    1
     3    10    11   ar
     4    11    12   ar
     5    12    13   ar
     6    13    14   ar
     7    14    15   ar
     8    15     4    1
     9     4     5    1
    10     5     6    1
    11     6     7    1
    12     7     3    1
    13     3     2    1
    14     2     1    1
    15     1    18    1
    16    18    19    1
    17    19    20    1
    18    20    21    2
    19    20    22   am
    20    22    23   ar
    21    23    24   ar
    22    24    25   ar
    23    25    26   ar
    24    26    27   ar
    25    27    28   ar
    26    28    29   ar
    27    29    30   ar
    28    30    31   ar
    29    31    32   ar
    30    32    33   ar
    31    33    34   ar
    32     7     8    1
    33     8     9    1
    34    15    10   ar
    35     9     4    1
    36    34    22   ar
    37    28    23   ar
    38    34    29   ar
@<TRIPOS>MOLECULE
*****
 34 38 0 0 0
SMALL
GASTEIGER

@<TRIPOS>ATOM
      1 C         137.8893  139.6257  162.0695 C.3     1  UNL1        0.0019
      2 C         138.4446  138.2335  162.0112 C.3     1  UNL1        0.0173
      3 C         138.7700  137.5020  163.2798 C.3     1  UNL1        0.0722
      4 N         141.0497  139.5820  166.5548 N.pl3   1  UNL1       -0.3023
      5 C         141.7883  138.9400  165.4180 C.3     1  UNL1        0.1082
      6 C         141.0284  138.2467  164.3263 C.3     1  UNL1        0.0938
      7 N         139.5299  138.1954  164.3715 N.3     1  UNL1       -0.2698
      8 C         138.7914  138.8374  165.5083 C.3     1  UNL1        0.0938
      9 C         139.5513  139.5307  166.5999 C.3     1  UNL1        0.1082
     10 C         142.1828  141.7207  167.4992 C.ar    1  UNL1        0.1519
     11 C         142.9427  142.4142  168.5909 C.ar    1  UNL1        0.0382
     12 C         143.3293  141.6623  169.8299 C.ar    1  UNL1        0.0032
     13 C         142.9561  140.2170  169.9772 C.ar    1  UNL1        0.0015
     14 C         142.1963  139.5235  168.8856 C.ar    1  UNL1        0.0176
     15 C         141.8096  140.2754  167.6466 C.ar    1  UNL1        0.0824
     16 C         140.4453  143.1176  166.1651 C.3     1  UNL1        0.2525
     17 O         141.7962  142.4728  166.2602 O.3     1  UNL1       -0.4702
     18 C         137.7493  140.4305  160.8115 C.3     1  UNL1        0.0099
     19 C         138.9329  141.1657  160.2560 C.3     1  UNL1        0.0885
     20 C         139.5538  142.2862  161.0364 C.2     1  UNL1        0.2412
     21 O         138.8145  143.5799  161.2086 O.2     1  UNL1       -0.2716
     22 N         140.9140  142.1129  161.6447 N.ar    1  UNL1       -0.2780
     23 C         141.6581  143.1387  162.4472 C.ar    1  UNL1        0.0665
     24 C         141.3084  144.5381  162.8587 C.ar    1  UNL1        0.0176
     25 C         142.2735  145.3420  163.6787 C.ar    1  UNL1        0.0015
     26 C         143.5882  144.7464  164.0872 C.ar    1  UNL1        0.0001
     27 C         143.9378  143.3471  163.6757 C.ar    1  UNL1        0.0015
     28 C         142.9728  142.5432  162.8557 C.ar    1  UNL1        0.0176
     29 C         143.0412  141.1493  162.3057 C.ar    1  UNL1        0.0176
     30 C         144.0977  140.0879  162.3897 C.ar    1  UNL1        0.0015
     31 C         143.8818  138.7605  161.7253 C.ar    1  UNL1        0.0001
     32 C         142.6094  138.4946  160.9768 C.ar    1  UNL1        0.0015
     33 C         141.5529  139.5560  160.8928 C.ar    1  UNL1        0.0176
     34 C         141.7688  140.8834  161.5573 C.ar    1  UNL1        0.0665
@<TRIPOS>BOND
     1    16    17    1
     2    17    10    1
     3    10    11   ar
     4    11    12   ar
     5    12    13   ar
     6    13    14   ar
     7    14    15   ar
     8    15     4    1
     9     4     5    1
    10     5     6    1
    11     6     7    1
    12     7     3    1
    13     3     2    1
    14     2     1    1
    15     1    18    1
    16    18    19    1
    17    19    20    1
    18    20    21    2
    19    20    22   am
    20    22    23   ar
    21    23    24   ar
    22    24    25   ar
    23    25    26   ar
    24    26    27   ar
    25    27    28   ar
    26    28    29   ar
    27    29    30   ar
    28    30    31   ar
    29    31    32   ar
    30    32    33   ar
    31    33    34   ar
    32     7     8    1
    33     8     9    1
    34    15    10   ar
    35     9     4    1
    36    34    22   ar
    37    28    23   ar
    38    34    29   ar
@<TRIPOS>MOLECULE
*****
 34 38 0 0 0
SMALL
GASTEIGER

@<TRIPOS>ATOM
      1 C         138.2380  139.1772  166.7395 C.3     1  UNL1        0.0019
      2 C         138.1022  139.8807  165.4216 C.3     1  UNL1        0.0173
      3 C         138.9763  139.4871  164.2678 C.3     1  UNL1        0.0722
      4 N         139.4740  142.2731  160.7693 N.pl3   1  UNL1       -0.3023
      5 C         138.2223  142.3216  161.5944 C.3     1  UNL1        0.1082
      6 C         138.0564  141.3929  162.7606 C.3     1  UNL1        0.0938
      7 N         139.1422  140.4158  163.1016 N.3     1  UNL1       -0.2698
      8 C         140.3939  140.3673  162.2765 C.3     1  UNL1        0.0938
      9 C         140.5598  141.2960  161.1103 C.3     1  UNL1        0.1082
     10 C         139.1045  142.8170  158.2558 C.ar    1  UNL1        0.1519
     11 C         139.2705  143.7456  157.0896 C.ar    1  UNL1        0.0382
     12 C         139.9719  145.0591  157.2706 C.ar    1  UNL1        0.0032
     13 C         140.5074  145.4439  158.6179 C.ar    1  UNL1        0.0015
     14 C         140.3415  144.5153  159.7841 C.ar    1  UNL1        0.0176
     15 C         139.6400  143.2018  159.6031 C.ar    1  UNL1        0.0824
     16 C         137.6009  141.2465  156.8337 C.3     1  UNL1        0.2525
     17 O         138.4030  141.5035  158.0747 O.3     1  UNL1       -0.4702
     18 C         139.2661  139.6347  167.7313 C.3     1  UNL1        0.0099
     19 C         140.1077  140.8409  167.4367 C.3     1  UNL1        0.0885
     20 C         141.4142  140.6861  166.7160 C.2     1  UNL1        0.2412
     21 O         142.3579  139.5861  167.1024 O.2     1  UNL1       -0.2716
     22 N         141.7768  141.6312  165.6091 N.ar    1  UNL1       -0.2780
     23 C         143.0410  141.6006  164.8024 C.ar    1  UNL1        0.0665
     24 C         144.2363  140.6955  164.8437 C.ar    1  UNL1        0.0176
     25 C         145.3751  140.9131  163.8920 C.ar    1  UNL1        0.0015
     26 C         145.3185  142.0359  162.8989 C.ar    1  UNL1        0.0001
     27 C         144.1231  142.9410  162.8575 C.ar    1  UNL1        0.0015
     28 C         142.9843  142.7234  163.8093 C.ar    1  UNL1        0.0176
     29 C         141.6851  143.4479  164.0023 C.ar    1  UNL1        0.0176
     30 C         141.0853  144.6350  163.3089 C.ar    1  UNL1        0.0015
     31 C         139.7391  145.1471  163.7278 C.ar    1  UNL1        0.0001
     32 C         138.9927  144.4721  164.8402 C.ar    1  UNL1        0.0015
     33 C         139.5926  143.2850  165.5336 C.ar    1  UNL1        0.0176
     34 C         140.9388  142.7729  165.1147 C.ar    1  UNL1        0.0665
@<TRIPOS>BOND
     1    16    17    1
     2    17    10    1
     3    10    11   ar
     4    11    12   ar
     5    12    13   ar
     6    13    14   ar
     7    14    15   ar
     8    15     4    1
     9     4     5    1
    10     5     6    1
    11     6     7    1
    12     7     3    1
    13     3     2    1
    14     2     1    1
    15     1    18    1
    16    18    19    1
    17    19    20    1
    18    20    21    2
    19    20    22   am
    20    22    23   ar
    21    23    24   ar
    22    24    25   ar
    23    25    26   ar
    24    26    27   ar
    25    27    28   ar
    26    28    29   ar
    27    29    30   ar
    28    30    31   ar
    29    31    32   ar
    30    32    33   ar
    31    33    34   ar
    32     7     8    1
    33     8     9    1
    34    15    10   ar
    35     9     4    1
    36    34    22   ar
    37    28    23   ar
    38    34    29   ar
@<TRIPOS>MOLECULE
*****
 34 38 0 0 0
SMALL
GASTEIGER

@<TRIPOS>ATOM
      1 C         143.5883  141.9896  158.6447 C.3     1  UNL1        0.0019
      2 C         143.8327  140.5958  158.1470 C.3     1  UNL1        0.0173
      3 C         142.7650  139.5515  158.2870 C.3     1  UNL1        0.0722
      4 N         140.5062  139.1477  162.1579 N.pl3   1  UNL1       -0.3023
      5 C         140.0312  140.1093  161.1093 C.3     1  UNL1        0.1082
      6 C         140.7842  140.2439  159.8189 C.3     1  UNL1        0.0938
      7 N         142.0121  139.4169  159.5773 N.3     1  UNL1       -0.2698
      8 C         142.4870  138.4553  160.6260 C.3     1  UNL1        0.0938
      9 C         141.7341  138.3207  161.9163 C.3     1  UNL1        0.1082
     10 C         138.8603  140.1243  163.9150 C.ar    1  UNL1        0.1519
     11 C         138.1074  139.9898  165.2053 C.ar    1  UNL1        0.0382
     12 C         138.2474  138.7440  166.0290 C.ar    1  UNL1        0.0032
     13 C         139.1404  137.6328  165.5623 C.ar    1  UNL1        0.0015
     14 C         139.8933  137.7674  164.2720 C.ar    1  UNL1        0.0176
     15 C         139.7533  139.0131  163.4483 C.ar    1  UNL1        0.0824
     16 C         137.4274  142.1308  163.0959 C.3     1  UNL1        0.2525
     17 O         138.7202  141.3702  163.0913 O.3     1  UNL1       -0.4702
     18 C         144.3037  142.4860  159.8660 C.3     1  UNL1        0.0099
     19 C         143.5724  142.5950  161.1711 C.3     1  UNL1        0.0885
     20 C         143.7568  141.5428  162.2243 C.2     1  UNL1        0.2412
     21 O         144.7644  140.4499  162.0241 O.2     1  UNL1       -0.2716
     22 N         142.9336  141.5837  163.4776 N.ar    1  UNL1       -0.2780
     23 C         143.0066  140.6058  164.6126 C.ar    1  UNL1        0.0665
     24 C         143.8509  139.3859  164.8338 C.ar    1  UNL1        0.0176
     25 C         143.6997  138.5876  166.0946 C.ar    1  UNL1        0.0015
     26 C         142.7041  139.0093  167.1344 C.ar    1  UNL1        0.0001
     27 C         141.8598  140.2291  166.9133 C.ar    1  UNL1        0.0015
     28 C         142.0110  141.0274  165.6524 C.ar    1  UNL1        0.0176
     29 C         141.3228  142.2659  165.1599 C.ar    1  UNL1        0.0176
     30 C         140.2505  143.1250  165.7617 C.ar    1  UNL1        0.0015
     31 C         139.7485  144.3279  165.0194 C.ar    1  UNL1        0.0001
     32 C         140.3187  144.6717  163.6753 C.ar    1  UNL1        0.0015
     33 C         141.3909  143.8127  163.0735 C.ar    1  UNL1        0.0176
     34 C         141.8930  142.6097  163.8158 C.ar    1  UNL1        0.0665
@<TRIPOS>BOND
     1    16    17    1
     2    17    10    1
     3    10    11   ar
     4    11    12   ar
     5    12    13   ar
     6    13    14   ar
     7    14    15   ar
     8    15     4    1
     9     4     5    1
    10     5     6    1
    11     6     7    1
    12     7     3    1
    13     3     2    1
    14     2     1    1
    15     1    18    1
    16    18    19    1
    17    19    20    1
    18    20    21    2
    19    20    22   am
    20    22    23   ar
    21    23    24   ar
    22    24    25   ar
    23    25    26   ar
    24    26    27   ar
    25    27    28   ar
    26    28    29   ar
    27    29    30   ar
    28    30    31   ar
    29    31    32   ar
    30    32    33   ar
    31    33    34   ar
    32     7     8    1
    33     8     9    1
    34    15    10   ar
    35     9     4    1
    36    34    22   ar
    37    28    23   ar
    38    34    29   ar
@<TRIPOS>MOLECULE
*****
 34 38 0 0 0
SMALL
GASTEIGER

@<TRIPOS>ATOM
      1 C         141.8783  138.9628  158.9113 C.3     1  UNL1        0.0019
      2 C         142.9151  138.1951  159.6767 C.3     1  UNL1        0.0173
      3 C         143.9539  138.9271  160.4738 C.3     1  UNL1        0.0722
      4 N         143.1956  139.9022  164.8008 N.pl3   1  UNL1       -0.3023
      5 C         142.5046  138.7335  164.1632 C.3     1  UNL1        0.1082
      6 C         142.7573  138.4085  162.7208 C.3     1  UNL1        0.0938
      7 N         143.7011  139.2522  161.9162 N.3     1  UNL1       -0.2698
      8 C         144.3921  140.4209  162.5538 C.3     1  UNL1        0.0938
      9 C         144.1393  140.7459  163.9962 C.3     1  UNL1        0.1082
     10 C         142.7468  141.6526  166.6675 C.ar    1  UNL1        0.1519
     11 C         142.4941  141.9778  168.1099 C.ar    1  UNL1        0.0382
     12 C         142.4374  140.8777  169.1280 C.ar    1  UNL1        0.0032
     13 C         142.6334  139.4523  168.7037 C.ar    1  UNL1        0.0015
     14 C         142.8861  139.1272  167.2613 C.ar    1  UNL1        0.0176
     15 C         142.9428  140.2273  166.2433 C.ar    1  UNL1        0.0824
     16 C         141.5388  143.2615  165.0237 C.3     1  UNL1        0.2525
     17 O         142.8035  142.7529  165.6495 O.3     1  UNL1       -0.4702
     18 C         141.1918  140.1351  159.5474 C.3     1  UNL1        0.0099
     19 C         139.8007  139.9865  160.0883 C.3     1  UNL1        0.0885
     20 C         139.5568  139.1551  161.3128 C.2     1  UNL1        0.2412
     21 O         139.8182  137.6784  161.2809 O.2     1  UNL1       -0.2716
     22 N         139.0517  139.8004  162.5691 N.ar    1  UNL1       -0.2780
     23 C         138.7630  139.1016  163.8646 C.ar    1  UNL1        0.0665
     24 C         138.8779  137.6640  164.2769 C.ar    1  UNL1        0.0176
     25 C         138.5093  137.2519  165.6712 C.ar    1  UNL1        0.0015
     26 C         138.0257  138.2774  166.6533 C.ar    1  UNL1        0.0001
     27 C         137.9108  139.7150  166.2411 C.ar    1  UNL1        0.0015
     28 C         138.2794  140.1271  164.8467 C.ar    1  UNL1        0.0176
     29 C         138.2693  141.4597  164.1581 C.ar    1  UNL1        0.0176
     30 C         137.8871  142.8309  164.6310 C.ar    1  UNL1        0.0015
     31 C         137.9822  144.0002  163.6963 C.ar    1  UNL1        0.0001
     32 C         138.4595  143.7983  162.2887 C.ar    1  UNL1        0.0015
     33 C         138.8417  142.4271  161.8158 C.ar    1  UNL1        0.0176
     34 C         138.7466  141.2578  162.7505 C.ar    1  UNL1        0.0665
@<TRIPOS>BOND
     1    16    17    1
     2    17    10    1
     3    10    11   ar
     4    11    12   ar
     5    12    13   ar
     6    13    14   ar
     7    14    15   ar
     8    15     4    1
     9     4     5    1
    10     5     6    1
    11     6     7    1
    12     7     3    1
    13     3     2    1
    14     2     1    1
    15     1    18    1
    16    18    19    1
    17    19    20    1
    18    20    21    2
    19    20    22   am
    20    22    23   ar
    21    23    24   ar
    22    24    25   ar
    23    25    26   ar
    24    26    27   ar
    25    27    28   ar
    26    28    29   ar
    27    29    30   ar
    28    30    31   ar
    29    31    32   ar
    30    32    33   ar
    31    33    34   ar
    32     7     8    1
    33     8     9    1
    34    15    10   ar
    35     9     4    1
    36    34    22   ar
    37    28    23   ar
    38    34    29   ar
