@<TRIPOS>MOLECULE
*****
 32 35 0 0 0
SMALL
GASTEIGER

@<TRIPOS>ATOM
      1 C         138.2163  140.2131  158.3344 C.3     1  UNL1        0.1540
      2 C         138.1174  140.0911  159.8262 C.3     1  UNL1        0.0554
      3 C         139.0644  139.0145  160.2669 C.3     1  UNL1        0.1288
      4 C         139.7485  138.4712  159.0476 C.3     1  UNL1        0.1185
      5 N         139.2244  139.2120  157.8532 N.am    1  UNL1       -0.2674
      6 C         139.6360  138.9905  156.4280 C.2     1  UNL1        0.2495
      7 O         139.0218  139.8121  155.3335 O.2     1  UNL1       -0.2699
      8 C         140.6620  137.9475  156.0970 C.ar    1  UNL1        0.0566
      9 C         140.2322  136.5434  155.7908 C.ar    1  UNL1        0.0044
     10 C         141.2582  135.5004  155.4598 C.ar    1  UNL1        0.0002
     11 C         142.7138  135.8614  155.4352 C.ar    1  UNL1        0.0274
     12 C         143.1436  137.2656  155.7414 C.ar    1  UNL1        0.1361
     13 C         142.1177  138.3086  156.0724 C.ar    1  UNL1        0.0411
     14 C         143.7398  134.8184  155.1042 C.3     1  UNL1        0.0952
     15 N         144.2262  133.8804  156.1689 N.3     1  UNL1       -0.3174
     16 H         144.7393  134.4060  156.8766 H       1  UNL1        0.1192
     17 H         144.8413  133.1820  155.7516 H       1  UNL1        0.1192
     18 O         144.5993  137.6266  155.7168 O.3     1  UNL1       -0.4717
     19 C         145.0428  138.9108  155.0812 C.3     1  UNL1        0.2525
     20 C         135.6105  141.6085  155.6863 C.3     1  UNL1        0.1107
     21 N         136.3839  140.6530  156.5459 N.am    1  UNL1       -0.3013
     22 C         137.4429  141.1685  157.4748 C.2     1  UNL1        0.2407
     23 O         137.7284  142.6395  157.5441 O.2     1  UNL1       -0.2733
     24 H         136.1965  139.6876  156.5004 H       1  UNL1        0.1495
     25 N         139.2880  138.5609  161.6791 N.ar    1  UNL1       -0.2307
     26 C         138.4694  138.9562  162.8722 C.ar    1  UNL1        0.1131
     27 C         139.0449  138.2719  164.0766 C.ar    1  UNL1        0.1005
     28 N         140.2192  137.4537  163.6278 N.ar    1  UNL1       -0.1332
     29 N         140.3695  137.6323  162.1461 N.ar    1  UNL1       -0.0641
     30 C         138.5356  138.3858  165.4828 C.3     1  UNL1        0.0437
     31 C         137.7250  137.8369  166.6193 C.3     1  UNL1        0.0064
     32 C         138.4639  139.1321  166.7821 C.3     1  UNL1        0.0064
@<TRIPOS>BOND
     1    20    21    1
     2    21    22   am
     3    22    23    2
     4     1    22    1
     5     1     2    1
     6     2     3    1
     7     3    25    1
     8    25    26   ar
     9    26    27   ar
    10    27    30    1
    11    30    31    1
    12    31    32    1
    13    27    28   ar
    14    28    29   ar
    15     3     4    1
    16     4     5    1
    17     5     6   am
    18     6     7    2
    19     6     8    1
    20     8     9   ar
    21     9    10   ar
    22    10    11   ar
    23    11    14    1
    24    14    15    1
    25    11    12   ar
    26    12    18    1
    27    18    19    1
    28    12    13   ar
    29     5     1    1
    30    13     8   ar
    31    29    25   ar
    32    32    30    1
    33    21    24    1
    34    15    16    1
    35    15    17    1
@<TRIPOS>MOLECULE
*****
 32 35 0 0 0
SMALL
GASTEIGER

@<TRIPOS>ATOM
      1 C         140.1010  142.7002  162.2605 C.3     1  UNL1        0.1540
      2 C         140.6046  141.8076  161.1653 C.3     1  UNL1        0.0554
      3 C         141.2158  140.5940  161.8007 C.3     1  UNL1        0.1288
      4 C         141.0899  140.7367  163.2886 C.3     1  UNL1        0.1185
      5 N         140.4009  142.0384  163.5727 N.am    1  UNL1       -0.2674
      6 C         140.0700  142.5827  164.9307 C.2     1  UNL1        0.2495
      7 O         139.3752  143.9058  165.0595 O.2     1  UNL1       -0.2699
      8 C         140.4338  141.8038  166.1600 C.ar    1  UNL1        0.0566
      9 C         139.5500  140.6862  166.6286 C.ar    1  UNL1        0.0044
     10 C         139.9138  139.9074  167.8579 C.ar    1  UNL1        0.0002
     11 C         141.1615  140.2462  168.6185 C.ar    1  UNL1        0.0274
     12 C         142.0454  141.3639  168.1498 C.ar    1  UNL1        0.1361
     13 C         141.6815  142.1427  166.9206 C.ar    1  UNL1        0.0411
     14 C         141.5253  139.4674  169.8477 C.3     1  UNL1        0.0952
     15 N         142.8861  138.8480  169.9677 N.3     1  UNL1       -0.3174
     16 H         142.9897  138.1160  169.2650 H       1  UNL1        0.1192
     17 H         142.9950  138.4441  170.8980 H       1  UNL1        0.1192
     18 O         143.2930  141.7028  168.9105 O.3     1  UNL1       -0.4717
     19 C         143.2378  142.6859  170.0420 C.3     1  UNL1        0.2525
     20 C         139.5475  146.5848  161.6658 C.3     1  UNL1        0.1107
     21 N         140.2311  145.2624  161.8505 N.am    1  UNL1       -0.3013
     22 C         139.4175  144.0226  162.0758 C.2     1  UNL1        0.2407
     23 O         137.9203  144.1051  162.1165 O.2     1  UNL1       -0.2733
     24 H         141.2138  145.2083  161.8238 H       1  UNL1        0.1495
     25 N         141.8429  139.4403  161.0755 N.ar    1  UNL1       -0.2307
     26 C         141.7929  139.1966  159.5963 C.ar    1  UNL1        0.1131
     27 C         142.5491  137.9335  159.3088 C.ar    1  UNL1        0.1005
     28 N         143.0663  137.3965  160.6103 N.ar    1  UNL1       -0.1332
     29 N         142.6299  138.3277  161.7022 N.ar    1  UNL1       -0.0641
     30 C         142.7523  137.3158  157.9571 C.3     1  UNL1        0.0437
     31 C         142.9772  137.4642  156.4815 C.3     1  UNL1        0.0064
     32 C         142.8794  136.0973  157.0914 C.3     1  UNL1        0.0064
@<TRIPOS>BOND
     1    20    21    1
     2    21    22   am
     3    22    23    2
     4     1    22    1
     5     1     2    1
     6     2     3    1
     7     3    25    1
     8    25    26   ar
     9    26    27   ar
    10    27    30    1
    11    30    31    1
    12    31    32    1
    13    27    28   ar
    14    28    29   ar
    15     3     4    1
    16     4     5    1
    17     5     6   am
    18     6     7    2
    19     6     8    1
    20     8     9   ar
    21     9    10   ar
    22    10    11   ar
    23    11    14    1
    24    14    15    1
    25    11    12   ar
    26    12    18    1
    27    18    19    1
    28    12    13   ar
    29     5     1    1
    30    13     8   ar
    31    29    25   ar
    32    32    30    1
    33    21    24    1
    34    15    16    1
    35    15    17    1
@<TRIPOS>MOLECULE
*****
 32 35 0 0 0
SMALL
GASTEIGER

@<TRIPOS>ATOM
      1 C         143.2970  139.5178  157.1441 C.3     1  UNL1        0.1540
      2 C         142.4542  139.8532  158.3387 C.3     1  UNL1        0.0554
      3 C         141.7191  138.6121  158.7505 C.3     1  UNL1        0.1288
      4 C         142.1077  137.5098  157.8104 C.3     1  UNL1        0.1185
      5 N         143.0829  138.0695  156.8176 N.am    1  UNL1       -0.2674
      6 C         143.7302  137.3136  155.6953 C.2     1  UNL1        0.2495
      7 O         144.6905  138.0105  154.7774 O.2     1  UNL1       -0.2699
      8 C         143.4174  135.8610  155.4908 C.ar    1  UNL1        0.0566
      9 C         142.7162  135.4132  154.2427 C.ar    1  UNL1        0.0044
     10 C         142.4034  133.9605  154.0382 C.ar    1  UNL1        0.0002
     11 C         142.7916  132.9556  155.0818 C.ar    1  UNL1        0.0274
     12 C         143.4928  133.4033  156.3301 C.ar    1  UNL1        0.1361
     13 C         143.8057  134.8560  156.5345 C.ar    1  UNL1        0.0411
     14 C         142.4788  131.5029  154.8773 C.3     1  UNL1        0.0952
     15 N         143.5807  130.4859  154.9144 N.3     1  UNL1       -0.3174
     16 H         144.2100  130.6376  154.1261 H       1  UNL1        0.1192
     17 H         143.1812  129.5493  154.8552 H       1  UNL1        0.1192
     18 O         143.8811  132.3983  157.3737 O.3     1  UNL1       -0.4717
     19 C         145.2831  132.3738  157.9064 C.3     1  UNL1        0.2525
     20 C         146.5841  141.2469  155.7457 C.3     1  UNL1        0.1107
     21 N         145.6850  140.3001  156.4842 N.am    1  UNL1       -0.3013
     22 C         144.1961  140.4645  156.4056 C.2     1  UNL1        0.2407
     23 O         143.6063  141.5756  155.5885 O.2     1  UNL1       -0.2733
     24 H         146.0721  139.5709  157.0205 H       1  UNL1        0.1495
     25 N         140.7634  138.4942  159.9006 N.ar    1  UNL1       -0.2307
     26 C         141.1251  138.1565  161.3165 C.ar    1  UNL1        0.1131
     27 C         139.8634  138.1468  162.1277 C.ar    1  UNL1        0.1005
     28 N         138.7218  138.4786  161.2129 N.ar    1  UNL1       -0.1332
     29 N         139.2780  138.6933  159.8365 N.ar    1  UNL1       -0.0641
     30 C         139.7611  137.8564  163.5956 C.3     1  UNL1        0.0437
     31 C         138.9251  137.5794  164.8099 C.3     1  UNL1        0.0064
     32 C         140.4198  137.6304  164.9242 C.3     1  UNL1        0.0064
@<TRIPOS>BOND
     1    20    21    1
     2    21    22   am
     3    22    23    2
     4     1    22    1
     5     1     2    1
     6     2     3    1
     7     3    25    1
     8    25    26   ar
     9    26    27   ar
    10    27    30    1
    11    30    31    1
    12    31    32    1
    13    27    28   ar
    14    28    29   ar
    15     3     4    1
    16     4     5    1
    17     5     6   am
    18     6     7    2
    19     6     8    1
    20     8     9   ar
    21     9    10   ar
    22    10    11   ar
    23    11    14    1
    24    14    15    1
    25    11    12   ar
    26    12    18    1
    27    18    19    1
    28    12    13   ar
    29     5     1    1
    30    13     8   ar
    31    29    25   ar
    32    32    30    1
    33    21    24    1
    34    15    16    1
    35    15    17    1
@<TRIPOS>MOLECULE
*****
 32 35 0 0 0
SMALL
GASTEIGER

@<TRIPOS>ATOM
      1 C         143.7022  137.8346  155.9821 C.3     1  UNL1        0.1540
      2 C         143.7042  136.4941  155.3090 C.3     1  UNL1        0.0554
      3 C         142.9706  135.5301  156.1938 C.3     1  UNL1        0.1288
      4 C         142.5152  136.2749  157.4136 C.3     1  UNL1        0.1185
      5 N         142.9674  137.6991  157.2828 N.am    1  UNL1       -0.2674
      6 C         142.7270  138.7954  158.2779 C.2     1  UNL1        0.2495
      7 O         143.2421  140.1784  158.0093 O.2     1  UNL1       -0.2699
      8 C         141.9715  138.5088  159.5417 C.ar    1  UNL1        0.0566
      9 C         142.7056  138.0505  160.7668 C.ar    1  UNL1        0.0044
     10 C         141.9501  137.7638  162.0306 C.ar    1  UNL1        0.0002
     11 C         140.4605  137.9355  162.0692 C.ar    1  UNL1        0.0274
     12 C         139.7263  138.3939  160.8440 C.ar    1  UNL1        0.1361
     13 C         140.4818  138.6805  159.5803 C.ar    1  UNL1        0.0411
     14 C         139.7050  137.6489  163.3329 C.3     1  UNL1        0.0952
     15 N         138.7689  138.6764  163.8966 N.3     1  UNL1       -0.3174
     16 H         139.3013  139.4928  164.1974 H       1  UNL1        0.1192
     17 H         138.2715  138.2818  164.6949 H       1  UNL1        0.1192
     18 O         138.2367  138.5656  160.8827 O.3     1  UNL1       -0.4717
     19 C         137.6324  139.9222  160.6719 C.3     1  UNL1        0.2525
     20 C         146.2062  140.8806  155.5331 C.3     1  UNL1        0.1107
     21 N         145.5828  139.6251  156.0671 N.am    1  UNL1       -0.3013
     22 C         144.3256  139.0901  155.4482 C.2     1  UNL1        0.2407
     23 O         143.6917  139.8107  154.2954 O.2     1  UNL1       -0.2733
     24 H         145.9989  139.1521  156.8237 H       1  UNL1        0.1495
     25 N         142.7339  134.0766  155.9088 N.ar    1  UNL1       -0.2307
     26 C         141.4788  133.4823  155.3418 C.ar    1  UNL1        0.1131
     27 C         141.6799  132.0006  155.2232 C.ar    1  UNL1        0.1005
     28 N         143.0594  131.6791  155.7170 N.ar    1  UNL1       -0.1332
     29 N         143.7107  132.9622  156.1407 N.ar    1  UNL1       -0.0641
     30 C         140.6777  131.0136  154.7024 C.3     1  UNL1        0.0437
     31 C         139.7093  130.5829  153.6409 C.3     1  UNL1        0.0064
     32 C         139.9101  129.7347  154.8617 C.3     1  UNL1        0.0064
@<TRIPOS>BOND
     1    20    21    1
     2    21    22   am
     3    22    23    2
     4     1    22    1
     5     1     2    1
     6     2     3    1
     7     3    25    1
     8    25    26   ar
     9    26    27   ar
    10    27    30    1
    11    30    31    1
    12    31    32    1
    13    27    28   ar
    14    28    29   ar
    15     3     4    1
    16     4     5    1
    17     5     6   am
    18     6     7    2
    19     6     8    1
    20     8     9   ar
    21     9    10   ar
    22    10    11   ar
    23    11    14    1
    24    14    15    1
    25    11    12   ar
    26    12    18    1
    27    18    19    1
    28    12    13   ar
    29     5     1    1
    30    13     8   ar
    31    29    25   ar
    32    32    30    1
    33    21    24    1
    34    15    16    1
    35    15    17    1
@<TRIPOS>MOLECULE
*****
 32 35 0 0 0
SMALL
GASTEIGER

@<TRIPOS>ATOM
      1 C         143.7233  138.0903  155.9111 C.3     1  UNL1        0.1540
      2 C         143.8091  136.6366  155.5512 C.3     1  UNL1        0.0554
      3 C         142.8090  135.8927  156.3858 C.3     1  UNL1        0.1288
      4 C         142.1051  136.8866  157.2614 C.3     1  UNL1        0.1185
      5 N         142.6702  138.2448  156.9680 N.am    1  UNL1       -0.2674
      6 C         142.2550  139.5315  157.6175 C.2     1  UNL1        0.2495
      7 O         142.9135  140.8192  157.2196 O.2     1  UNL1       -0.2699
      8 C         141.1813  139.5306  158.6650 C.ar    1  UNL1        0.0566
      9 C         139.7686  139.8687  158.2912 C.ar    1  UNL1        0.0044
     10 C         138.6949  139.8678  159.3387 C.ar    1  UNL1        0.0002
     11 C         139.0340  139.5289  160.7600 C.ar    1  UNL1        0.0274
     12 C         140.4468  139.1908  161.1338 C.ar    1  UNL1        0.1361
     13 C         141.5205  139.1917  160.0864 C.ar    1  UNL1        0.0411
     14 C         137.9603  139.5281  161.8075 C.3     1  UNL1        0.0952
     15 N         137.1071  140.7454  162.0080 N.3     1  UNL1       -0.3174
     16 H         137.6840  141.5114  162.3555 H       1  UNL1        0.1192
     17 H         136.3730  140.5382  162.6852 H       1  UNL1        0.1192
     18 O         140.7859  138.8519  162.5551 O.3     1  UNL1       -0.4717
     19 C         141.2029  137.4566  162.9144 C.3     1  UNL1        0.2525
     20 C         146.4180  140.9817  155.5530 C.3     1  UNL1        0.1107
     21 N         145.5951  139.8765  156.1461 N.am    1  UNL1       -0.3013
     22 C         144.5461  139.1954  155.3181 C.2     1  UNL1        0.2407
     23 O         144.3199  139.6193  153.8971 O.2     1  UNL1       -0.2733
     24 H         145.7436  139.5983  157.0787 H       1  UNL1        0.1495
     25 N         142.5570  134.4144  156.3509 N.ar    1  UNL1       -0.2307
     26 C         141.7451  133.6824  155.3237 C.ar    1  UNL1        0.1131
     27 C         141.7590  132.2242  155.6750 C.ar    1  UNL1        0.1005
     28 N         142.5796  132.0550  156.9192 N.ar    1  UNL1       -0.1332
     29 N         143.0727  133.4086  157.3369 N.ar    1  UNL1       -0.0641
     30 C         141.0730  131.1278  154.9154 C.3     1  UNL1        0.0437
     31 C         139.8198  130.3910  154.5456 C.3     1  UNL1        0.0064
     32 C         141.1377  129.9653  153.9696 C.3     1  UNL1        0.0064
@<TRIPOS>BOND
     1    20    21    1
     2    21    22   am
     3    22    23    2
     4     1    22    1
     5     1     2    1
     6     2     3    1
     7     3    25    1
     8    25    26   ar
     9    26    27   ar
    10    27    30    1
    11    30    31    1
    12    31    32    1
    13    27    28   ar
    14    28    29   ar
    15     3     4    1
    16     4     5    1
    17     5     6   am
    18     6     7    2
    19     6     8    1
    20     8     9   ar
    21     9    10   ar
    22    10    11   ar
    23    11    14    1
    24    14    15    1
    25    11    12   ar
    26    12    18    1
    27    18    19    1
    28    12    13   ar
    29     5     1    1
    30    13     8   ar
    31    29    25   ar
    32    32    30    1
    33    21    24    1
    34    15    16    1
    35    15    17    1
@<TRIPOS>MOLECULE
*****
 32 35 0 0 0
SMALL
GASTEIGER

@<TRIPOS>ATOM
      1 C         141.9904  139.0015  157.7484 C.3     1  UNL1        0.1540
      2 C         141.4565  140.3219  157.2779 C.3     1  UNL1        0.0554
      3 C         141.2685  141.2004  158.4792 C.3     1  UNL1        0.1288
      4 C         141.6861  140.4228  159.6920 C.3     1  UNL1        0.1185
      5 N         142.1323  139.0638  159.2404 N.am    1  UNL1       -0.2674
      6 C         142.6325  137.9609  160.1253 C.2     1  UNL1        0.2495
      7 O         143.0455  136.6485  159.5275 O.2     1  UNL1       -0.2699
      8 C         142.7198  138.1701  161.6081 C.ar    1  UNL1        0.0566
      9 C         141.6130  137.6905  162.4996 C.ar    1  UNL1        0.0044
     10 C         141.7003  137.8998  163.9824 C.ar    1  UNL1        0.0002
     11 C         142.8943  138.5887  164.5736 C.ar    1  UNL1        0.0274
     12 C         144.0012  139.0684  163.6820 C.ar    1  UNL1        0.1361
     13 C         143.9139  138.8591  162.1993 C.ar    1  UNL1        0.0411
     14 C         142.9816  138.7980  166.0564 C.3     1  UNL1        0.0952
     15 N         143.9945  138.0403  166.8624 N.3     1  UNL1       -0.3174
     16 H         143.7692  137.0457  166.8434 H       1  UNL1        0.1192
     17 H         143.9805  138.3737  167.8263 H       1  UNL1        0.1192
     18 O         145.1953  139.7573  164.2733 O.3     1  UNL1       -0.4717
     19 C         145.5485  141.1493  163.8404 C.3     1  UNL1        0.2525
     20 C         144.0740  136.4138  155.5776 C.3     1  UNL1        0.1107
     21 N         143.7406  137.5902  156.4466 N.am    1  UNL1       -0.3013
     22 C         142.3238  137.8252  156.8794 C.2     1  UNL1        0.2407
     23 O         141.2404  136.8839  156.4433 O.2     1  UNL1       -0.2733
     24 H         144.4517  138.2080  156.7328 H       1  UNL1        0.1495
     25 N         140.7532  142.6091  158.4693 N.ar    1  UNL1       -0.2307
     26 C         140.6616  143.5060  157.2705 C.ar    1  UNL1        0.1131
     27 C         140.0909  144.8194  157.7168 C.ar    1  UNL1        0.1005
     28 N         139.8298  144.7343  159.1914 N.ar    1  UNL1       -0.1332
     29 N         140.2391  143.3682  159.6565 N.ar    1  UNL1       -0.0641
     30 C         139.8275  146.0091  156.8421 C.3     1  UNL1        0.0437
     31 C         139.9607  146.7040  155.5194 C.3     1  UNL1        0.0064
     32 C         139.2382  147.3751  156.6497 C.3     1  UNL1        0.0064
@<TRIPOS>BOND
     1    20    21    1
     2    21    22   am
     3    22    23    2
     4     1    22    1
     5     1     2    1
     6     2     3    1
     7     3    25    1
     8    25    26   ar
     9    26    27   ar
    10    27    30    1
    11    30    31    1
    12    31    32    1
    13    27    28   ar
    14    28    29   ar
    15     3     4    1
    16     4     5    1
    17     5     6   am
    18     6     7    2
    19     6     8    1
    20     8     9   ar
    21     9    10   ar
    22    10    11   ar
    23    11    14    1
    24    14    15    1
    25    11    12   ar
    26    12    18    1
    27    18    19    1
    28    12    13   ar
    29     5     1    1
    30    13     8   ar
    31    29    25   ar
    32    32    30    1
    33    21    24    1
    34    15    16    1
    35    15    17    1
@<TRIPOS>MOLECULE
*****
 32 35 0 0 0
SMALL
GASTEIGER

@<TRIPOS>ATOM
      1 C         141.7702  143.2748  159.9672 C.3     1  UNL1        0.1540
      2 C         142.4718  143.0743  158.6567 C.3     1  UNL1        0.0554
      3 C         143.5012  141.9991  158.8419 C.3     1  UNL1        0.1288
      4 C         143.4358  141.5351  160.2668 C.3     1  UNL1        0.1185
      5 N         142.3659  142.3236  160.9623 N.am    1  UNL1       -0.2674
      6 C         141.9627  142.1851  162.4004 C.2     1  UNL1        0.2495
      7 O         140.8695  143.0470  162.9592 O.2     1  UNL1       -0.2699
      8 C         142.6526  141.1847  163.2798 C.ar    1  UNL1        0.0566
      9 C         144.0450  141.4511  163.7698 C.ar    1  UNL1        0.0044
     10 C         144.7348  140.4508  164.6492 C.ar    1  UNL1        0.0002
     11 C         144.0323  139.1840  165.0386 C.ar    1  UNL1        0.0274
     12 C         142.6398  138.9175  164.5486 C.ar    1  UNL1        0.1361
     13 C         141.9499  139.9179  163.6692 C.ar    1  UNL1        0.0411
     14 C         144.7221  138.1836  165.9180 C.3     1  UNL1        0.0952
     15 N         144.0689  137.7250  167.1880 N.3     1  UNL1       -0.3174
     16 H         144.0035  138.5078  167.8386 H       1  UNL1        0.1192
     17 H         144.6258  136.9802  167.6070 H       1  UNL1        0.1192
     18 O         141.9372  137.6508  164.9380 O.3     1  UNL1       -0.4717
     19 C         140.4525  137.5318  164.7609 C.3     1  UNL1        0.2525
     20 C         139.7822  146.3673  161.4621 C.3     1  UNL1        0.1107
     21 N         140.8859  145.3875  161.1939 N.am    1  UNL1       -0.3013
     22 C         140.6665  144.2546  160.2355 C.2     1  UNL1        0.2407
     23 O         139.3435  144.1015  159.5455 O.2     1  UNL1       -0.2733
     24 H         141.7543  145.4880  161.6468 H       1  UNL1        0.1495
     25 N         144.4326  141.4791  157.7872 N.ar    1  UNL1       -0.2307
     26 C         145.6287  142.1968  157.2357 C.ar    1  UNL1        0.1131
     27 C         146.2667  141.3114  156.2065 C.ar    1  UNL1        0.1005
     28 N         145.4648  140.0465  156.1221 N.ar    1  UNL1       -0.1332
     29 N         144.3313  140.1502  157.0990 N.ar    1  UNL1       -0.0641
     30 C         147.4914  141.6342  155.4030 C.3     1  UNL1        0.0437
     31 C         148.9719  141.8629  155.3265 C.3     1  UNL1        0.0064
     32 C         148.1323  141.9646  154.0876 C.3     1  UNL1        0.0064
@<TRIPOS>BOND
     1    20    21    1
     2    21    22   am
     3    22    23    2
     4     1    22    1
     5     1     2    1
     6     2     3    1
     7     3    25    1
     8    25    26   ar
     9    26    27   ar
    10    27    30    1
    11    30    31    1
    12    31    32    1
    13    27    28   ar
    14    28    29   ar
    15     3     4    1
    16     4     5    1
    17     5     6   am
    18     6     7    2
    19     6     8    1
    20     8     9   ar
    21     9    10   ar
    22    10    11   ar
    23    11    14    1
    24    14    15    1
    25    11    12   ar
    26    12    18    1
    27    18    19    1
    28    12    13   ar
    29     5     1    1
    30    13     8   ar
    31    29    25   ar
    32    32    30    1
    33    21    24    1
    34    15    16    1
    35    15    17    1
@<TRIPOS>MOLECULE
*****
 32 35 0 0 0
SMALL
GASTEIGER

@<TRIPOS>ATOM
      1 C         142.4614  138.5605  156.0262 C.3     1  UNL1        0.1540
      2 C         142.6299  139.1388  157.3999 C.3     1  UNL1        0.0554
      3 C         142.8048  138.0021  158.3630 C.3     1  UNL1        0.1288
      4 C         142.7442  136.7214  157.5844 C.3     1  UNL1        0.1185
      5 N         142.5320  137.0665  156.1402 N.am    1  UNL1       -0.2674
      6 C         142.4115  136.0893  155.0087 C.2     1  UNL1        0.2495
      7 O         142.1999  136.5850  153.6088 O.2     1  UNL1       -0.2699
      8 C         142.5027  134.6163  155.2769 C.ar    1  UNL1        0.0566
      9 C         141.3160  133.7336  155.0269 C.ar    1  UNL1        0.0044
     10 C         141.4071  132.2606  155.2952 C.ar    1  UNL1        0.0002
     11 C         142.6850  131.6703  155.8134 C.ar    1  UNL1        0.0274
     12 C         143.8718  132.5530  156.0634 C.ar    1  UNL1        0.1361
     13 C         143.7806  134.0260  155.7952 C.ar    1  UNL1        0.0411
     14 C         142.7761  130.1973  156.0816 C.3     1  UNL1        0.0952
     15 N         143.9780  129.4247  155.6250 N.3     1  UNL1       -0.3174
     16 H         144.0086  129.4148  154.6055 H       1  UNL1        0.1192
     17 H         143.9193  128.4676  155.9728 H       1  UNL1        0.1192
     18 O         145.1496  131.9627  156.5816 O.3     1  UNL1       -0.4717
     19 C         145.4008  131.8977  158.0590 C.3     1  UNL1        0.2525
     20 C         140.7132  140.1214  152.8234 C.3     1  UNL1        0.1107
     21 N         140.9166  139.3423  154.0890 N.am    1  UNL1       -0.3013
     22 C         142.2579  139.3396  154.7606 C.2     1  UNL1        0.2407
     23 O         143.3957  140.1159  154.1666 O.2     1  UNL1       -0.2733
     24 H         140.1699  138.8328  154.4789 H       1  UNL1        0.1495
     25 N         143.0050  138.1246  159.8445 N.ar    1  UNL1       -0.2307
     26 C         141.9904  137.8016  160.9010 C.ar    1  UNL1        0.1131
     27 C         142.6132  138.0689  162.2391 C.ar    1  UNL1        0.1005
     28 N         144.0128  138.5572  162.0096 N.ar    1  UNL1       -0.1332
     29 N         144.2549  138.5916  160.5297 N.ar    1  UNL1       -0.0641
     30 C         141.9526  137.8811  163.5726 C.3     1  UNL1        0.0437
     31 C         141.7527  138.3118  164.9955 C.3     1  UNL1        0.0064
     32 C         141.0082  137.1250  164.4595 C.3     1  UNL1        0.0064
@<TRIPOS>BOND
     1    20    21    1
     2    21    22   am
     3    22    23    2
     4     1    22    1
     5     1     2    1
     6     2     3    1
     7     3    25    1
     8    25    26   ar
     9    26    27   ar
    10    27    30    1
    11    30    31    1
    12    31    32    1
    13    27    28   ar
    14    28    29   ar
    15     3     4    1
    16     4     5    1
    17     5     6   am
    18     6     7    2
    19     6     8    1
    20     8     9   ar
    21     9    10   ar
    22    10    11   ar
    23    11    14    1
    24    14    15    1
    25    11    12   ar
    26    12    18    1
    27    18    19    1
    28    12    13   ar
    29     5     1    1
    30    13     8   ar
    31    29    25   ar
    32    32    30    1
    33    21    24    1
    34    15    16    1
    35    15    17    1
@<TRIPOS>MOLECULE
*****
 32 35 0 0 0
SMALL
GASTEIGER

@<TRIPOS>ATOM
      1 C         141.6512  140.8944  170.1660 C.3     1  UNL1        0.1540
      2 C         142.5670  140.0334  170.9846 C.3     1  UNL1        0.0554
      3 C         142.9918  138.8714  170.1364 C.3     1  UNL1        0.1288
      4 C         142.3385  139.0142  168.7937 C.3     1  UNL1        0.1185
      5 N         141.5100  140.2645  168.8120 N.am    1  UNL1       -0.2674
      6 C         140.6851  140.7923  167.6758 C.2     1  UNL1        0.2495
      7 O         139.9048  142.0625  167.8422 O.2     1  UNL1       -0.2699
      8 C         140.6405  140.0499  166.3732 C.ar    1  UNL1        0.0566
      9 C         139.4891  139.1379  166.0688 C.ar    1  UNL1        0.0044
     10 C         139.4445  138.3955  164.7662 C.ar    1  UNL1        0.0002
     11 C         140.5512  138.5650  163.7680 C.ar    1  UNL1        0.0274
     12 C         141.7026  139.4770  164.0724 C.ar    1  UNL1        0.1361
     13 C         141.7473  140.2194  165.3750 C.ar    1  UNL1        0.0411
     14 C         140.5066  137.8226  162.4654 C.3     1  UNL1        0.0952
     15 N         141.7363  137.1339  161.9521 N.3     1  UNL1       -0.3174
     16 H         142.4472  137.8301  161.7275 H       1  UNL1        0.1192
     17 H         141.5034  136.6029  161.1130 H       1  UNL1        0.1192
     18 O         142.8094  139.6465  163.0742 O.3     1  UNL1       -0.4717
     19 C         144.2395  139.5633  163.5188 C.3     1  UNL1        0.2525
     20 C         140.4416  144.6734  170.2439 C.3     1  UNL1        0.1107
     21 N         141.1005  143.4051  169.7883 N.am    1  UNL1       -0.3013
     22 C         140.9924  142.1626  170.6216 C.2     1  UNL1        0.2407
     23 O         140.2254  142.1883  171.9104 O.2     1  UNL1       -0.2733
     24 H         141.6040  143.3883  168.9424 H       1  UNL1        0.1495
     25 N         143.9088  137.7614  170.5570 N.ar    1  UNL1       -0.2307
     26 C         144.5427  137.6054  171.9075 C.ar    1  UNL1        0.1131
     27 C         145.3786  136.3601  171.8862 C.ar    1  UNL1        0.1005
     28 N         145.2613  135.7464  170.5226 N.ar    1  UNL1       -0.1332
     29 N         144.3530  136.6124  169.7011 N.ar    1  UNL1       -0.0641
     30 C         146.1894  135.8228  173.0280 C.3     1  UNL1        0.0437
     31 C         147.2398  136.0187  174.0808 C.3     1  UNL1        0.0064
     32 C         146.5435  134.6963  173.9531 C.3     1  UNL1        0.0064
@<TRIPOS>BOND
     1    20    21    1
     2    21    22   am
     3    22    23    2
     4     1    22    1
     5     1     2    1
     6     2     3    1
     7     3    25    1
     8    25    26   ar
     9    26    27   ar
    10    27    30    1
    11    30    31    1
    12    31    32    1
    13    27    28   ar
    14    28    29   ar
    15     3     4    1
    16     4     5    1
    17     5     6   am
    18     6     7    2
    19     6     8    1
    20     8     9   ar
    21     9    10   ar
    22    10    11   ar
    23    11    14    1
    24    14    15    1
    25    11    12   ar
    26    12    18    1
    27    18    19    1
    28    12    13   ar
    29     5     1    1
    30    13     8   ar
    31    29    25   ar
    32    32    30    1
    33    21    24    1
    34    15    16    1
    35    15    17    1
