@<TRIPOS>MOLECULE
*****
 36 40 0 0 0
SMALL
GASTEIGER

@<TRIPOS>ATOM
      1 N         140.6846  138.4458  158.2406 N.3     1  UNL1       -0.2702
      2 C         141.8734  138.3309  159.1481 C.3     1  UNL1        0.0740
      3 C         141.7595  138.7351  160.5882 C.3     1  UNL1        0.0369
      4 C         140.4568  139.2541  161.1207 C.3     1  UNL1        0.0747
      5 C         139.2680  139.3690  160.2132 C.3     1  UNL1        0.0369
      6 C         139.3818  138.9648  158.7732 C.3     1  UNL1        0.0740
      7 C         143.3684  134.9877  156.1063 C.ar    1  UNL1        0.0500
      8 C         143.1695  134.9304  154.6206 C.ar    1  UNL1        0.0143
      9 C         142.2206  135.8818  153.9538 C.ar    1  UNL1       -0.0033
     10 C         141.4708  136.8904  154.7725 C.ar    1  UNL1       -0.0247
     11 C         141.6697  136.9477  156.2581 C.ar    1  UNL1       -0.0105
     12 C         142.6185  135.9964  156.9250 C.ar    1  UNL1        0.0114
     13 C         140.7984  138.0416  156.8007 C.3     1  UNL1        0.0802
     14 C         140.0610  138.6603  155.6503 C.3     1  UNL1        0.0251
     15 C         140.4765  137.9489  154.3969 C.3     1  UNL1        0.0278
     16 C         144.8063  131.7080  157.8167 C.3     1  UNL1        0.0949
     17 C         143.8574  132.6593  157.1498 C.2     1  UNL1        0.2266
     18 O         142.4487  132.2334  156.8595 O.2     1  UNL1       -0.2748
     19 N         144.3172  134.0364  156.7732 N.am    1  UNL1       -0.2839
     20 H         145.2418  134.3160  156.9637 H       1  UNL1        0.1549
     21 N         140.3429  139.6583  162.5607 N.am    1  UNL1       -0.2999
     22 C         139.5681  138.8046  163.5203 C.2     1  UNL1        0.2806
     23 O         138.9072  137.5467  163.0399 O.2     1  UNL1       -0.2668
     24 H         140.7767  140.4839  162.8760 H       1  UNL1        0.1498
     25 C         139.4543  139.2088  164.9604 C.ar    1  UNL1        0.2014
     26 C         138.4306  138.5587  165.8432 C.ar    1  UNL1        0.0843
     27 C         138.3167  138.9628  167.2832 C.ar    1  UNL1        0.2018
     28 O         137.2930  138.3127  168.1660 O.2     1  UNL1       -0.2864
     29 C         139.2266  140.0172  167.8404 C.ar    1  UNL1        0.0737
     30 C         139.1127  140.4214  169.2804 C.ar    1  UNL1        0.0085
     31 C         140.0225  141.4758  169.8376 C.ar    1  UNL1        0.0299
     32 C         141.0462  142.1259  168.9548 C.ar    1  UNL1        0.1432
     33 F         141.9561  143.1803  169.5121 F       1  UNL1       -0.2041
     34 C         141.1601  141.7218  167.5148 C.ar    1  UNL1        0.0672
     35 C         140.2503  140.6674  166.9576 C.ar    1  UNL1        0.1508
     36 O         140.3641  140.2632  165.5176 O.2     1  UNL1       -0.4486
@<TRIPOS>BOND
     1    16    17    1
     2    17    18    2
     3    17    19   am
     4    19     7    1
     5     7     8   ar
     6     8     9   ar
     7     9    10   ar
     8    10    11   ar
     9    11    12   ar
    10    11    13    1
    11    13     1    1
    12     1     2    1
    13     2     3    1
    14     3     4    1
    15     4    21    1
    16    21    22   am
    17    22    23    2
    18    22    25    1
    19    25    26   ar
    20    26    27   ar
    21    27    28    2
    22    27    29   ar
    23    29    30   ar
    24    30    31   ar
    25    31    32   ar
    26    32    33    1
    27    32    34   ar
    28    34    35   ar
    29    35    36   ar
    30     4     5    1
    31     5     6    1
    32    13    14    1
    33    14    15    1
    34    12     7   ar
    35     6     1    1
    36    15    10    1
    37    36    25   ar
    38    35    29   ar
    39    19    20    1
    40    21    24    1
@<TRIPOS>MOLECULE
*****
 36 40 0 0 0
SMALL
GASTEIGER

@<TRIPOS>ATOM
      1 N         140.7723  137.9307  157.7902 N.3     1  UNL1       -0.2702
      2 C         139.6305  138.3739  158.6561 C.3     1  UNL1        0.0740
      3 C         139.8941  138.8836  160.0421 C.3     1  UNL1        0.0369
      4 C         141.2995  138.9501  160.5621 C.3     1  UNL1        0.0747
      5 C         142.4413  138.5069  159.6962 C.3     1  UNL1        0.0369
      6 C         142.1778  137.9972  158.3103 C.3     1  UNL1        0.0740
      7 C         143.0017  134.4658  155.1940 C.ar    1  UNL1        0.0500
      8 C         142.4002  134.2808  153.8323 C.ar    1  UNL1        0.0143
      9 C         141.2348  135.1238  153.4064 C.ar    1  UNL1       -0.0033
     10 C         140.6710  136.1516  154.3421 C.ar    1  UNL1       -0.0247
     11 C         141.2724  136.3366  155.7037 C.ar    1  UNL1       -0.0105
     12 C         142.4378  135.4937  156.1296 C.ar    1  UNL1        0.0114
     13 C         140.5088  137.4210  156.4044 C.3     1  UNL1        0.0802
     14 C         139.4354  137.9062  155.4758 C.3     1  UNL1        0.0251
     15 C         139.5356  137.1217  154.2012 C.3     1  UNL1        0.0278
     16 C         145.1257  131.6424  157.0014 C.3     1  UNL1        0.0949
     17 C         143.9603  132.4853  156.5755 C.2     1  UNL1        0.2266
     18 O         142.5882  132.1906  157.1051 O.2     1  UNL1       -0.2748
     19 N         144.1670  133.6228  155.6199 N.am    1  UNL1       -0.2839
     20 H         145.0676  133.8162  155.2723 H       1  UNL1        0.1549
     21 N         141.5630  139.4598  161.9480 N.am    1  UNL1       -0.2999
     22 C         141.3852  138.5508  163.1278 C.2     1  UNL1        0.2806
     23 O         140.9438  137.1321  162.9218 O.2     1  UNL1       -0.2668
     24 H         141.8527  140.3909  162.0832 H       1  UNL1        0.1498
     25 C         141.6487  139.0605  164.5138 C.ar    1  UNL1        0.2014
     26 C         142.5980  138.3275  165.4146 C.ar    1  UNL1        0.0843
     27 C         142.8615  138.8371  166.8005 C.ar    1  UNL1        0.2018
     28 O         143.8108  138.1041  167.7013 O.2     1  UNL1       -0.2864
     29 C         142.1758  140.0800  167.2856 C.ar    1  UNL1        0.0737
     30 C         142.4394  140.5897  168.6715 C.ar    1  UNL1        0.0085
     31 C         141.7537  141.8324  169.1565 C.ar    1  UNL1        0.0299
     32 C         140.8044  142.5655  168.2557 C.ar    1  UNL1        0.1432
     33 F         140.1187  143.8083  168.7408 F       1  UNL1       -0.2041
     34 C         140.5409  142.0558  166.8698 C.ar    1  UNL1        0.0672
     35 C         141.2266  140.8131  166.3848 C.ar    1  UNL1        0.1508
     36 O         140.9630  140.3033  164.9988 O.2     1  UNL1       -0.4486
@<TRIPOS>BOND
     1    16    17    1
     2    17    18    2
     3    17    19   am
     4    19     7    1
     5     7     8   ar
     6     8     9   ar
     7     9    10   ar
     8    10    11   ar
     9    11    12   ar
    10    11    13    1
    11    13     1    1
    12     1     2    1
    13     2     3    1
    14     3     4    1
    15     4    21    1
    16    21    22   am
    17    22    23    2
    18    22    25    1
    19    25    26   ar
    20    26    27   ar
    21    27    28    2
    22    27    29   ar
    23    29    30   ar
    24    30    31   ar
    25    31    32   ar
    26    32    33    1
    27    32    34   ar
    28    34    35   ar
    29    35    36   ar
    30     4     5    1
    31     5     6    1
    32    13    14    1
    33    14    15    1
    34    12     7   ar
    35     6     1    1
    36    15    10    1
    37    36    25   ar
    38    35    29   ar
    39    19    20    1
    40    21    24    1
@<TRIPOS>MOLECULE
*****
 36 40 0 0 0
SMALL
GASTEIGER

@<TRIPOS>ATOM
      1 N         141.4048  137.0374  156.7109 N.3     1  UNL1       -0.2702
      2 C         140.1194  137.6524  157.1794 C.3     1  UNL1        0.0740
      3 C         140.0980  138.4886  158.4246 C.3     1  UNL1        0.0369
      4 C         141.3621  138.7097  159.2012 C.3     1  UNL1        0.0747
      5 C         142.6475  138.0947  158.7328 C.3     1  UNL1        0.0369
      6 C         142.6689  137.2586  157.4876 C.3     1  UNL1        0.0740
      7 C         142.5566  132.3535  156.0398 C.ar    1  UNL1        0.0500
      8 C         142.4377  131.9242  154.6074 C.ar    1  UNL1        0.0143
      9 C         142.0016  132.9087  153.5631 C.ar    1  UNL1       -0.0033
     10 C         141.6843  134.3224  153.9512 C.ar    1  UNL1       -0.0247
     11 C         141.8032  134.7517  155.3835 C.ar    1  UNL1       -0.0105
     12 C         142.2393  133.7672  156.4278 C.ar    1  UNL1        0.0114
     13 C         141.4262  136.2013  155.4658 C.3     1  UNL1        0.0802
     14 C         141.0743  136.6678  154.0843 C.3     1  UNL1        0.0251
     15 C         141.2339  135.5067  153.1482 C.3     1  UNL1        0.0278
     16 C         144.8860  130.0765  158.3067 C.3     1  UNL1        0.0949
     17 C         144.4499  131.0610  157.2624 C.2     1  UNL1        0.2266
     18 O         145.4709  131.7375  156.3964 O.2     1  UNL1       -0.2748
     19 N         142.9927  131.3690  157.0840 N.am    1  UNL1       -0.2839
     20 H         142.3226  130.9249  157.6524 H       1  UNL1        0.1549
     21 N         141.3407  139.5458  160.4464 N.am    1  UNL1       -0.2999
     22 C         141.2397  138.8874  161.7903 C.2     1  UNL1        0.2806
     23 O         141.1601  137.3928  161.8892 O.2     1  UNL1       -0.2668
     24 H         141.3930  140.5268  160.3815 H       1  UNL1        0.1498
     25 C         141.2183  139.7236  163.0355 C.ar    1  UNL1        0.2014
     26 C         141.9610  141.0262  163.0769 C.ar    1  UNL1        0.0843
     27 C         141.9396  141.8624  164.3220 C.ar    1  UNL1        0.2018
     28 O         142.6823  143.1650  164.3635 O.2     1  UNL1       -0.2864
     29 C         141.1756  141.3960  165.5257 C.ar    1  UNL1        0.0737
     30 C         141.1542  142.2322  166.7708 C.ar    1  UNL1        0.0085
     31 C         140.3902  141.7658  167.9744 C.ar    1  UNL1        0.0299
     32 C         139.6476  140.4632  167.9329 C.ar    1  UNL1        0.1432
     33 F         138.8836  139.9969  169.1367 F       1  UNL1       -0.2041
     34 C         139.6689  139.6270  166.6879 C.ar    1  UNL1        0.0672
     35 C         140.4329  140.0934  165.4843 C.ar    1  UNL1        0.1508
     36 O         140.4543  139.2572  164.2391 O.2     1  UNL1       -0.4486
@<TRIPOS>BOND
     1    16    17    1
     2    17    18    2
     3    17    19   am
     4    19     7    1
     5     7     8   ar
     6     8     9   ar
     7     9    10   ar
     8    10    11   ar
     9    11    12   ar
    10    11    13    1
    11    13     1    1
    12     1     2    1
    13     2     3    1
    14     3     4    1
    15     4    21    1
    16    21    22   am
    17    22    23    2
    18    22    25    1
    19    25    26   ar
    20    26    27   ar
    21    27    28    2
    22    27    29   ar
    23    29    30   ar
    24    30    31   ar
    25    31    32   ar
    26    32    33    1
    27    32    34   ar
    28    34    35   ar
    29    35    36   ar
    30     4     5    1
    31     5     6    1
    32    13    14    1
    33    14    15    1
    34    12     7   ar
    35     6     1    1
    36    15    10    1
    37    36    25   ar
    38    35    29   ar
    39    19    20    1
    40    21    24    1
@<TRIPOS>MOLECULE
*****
 36 40 0 0 0
SMALL
GASTEIGER

@<TRIPOS>ATOM
      1 N         143.0702  138.0391  158.0103 N.3     1  UNL1       -0.2702
      2 C         142.8026  137.1837  159.2131 C.3     1  UNL1        0.0740
      3 C         142.9973  137.7447  160.5907 C.3     1  UNL1        0.0369
      4 C         143.4594  139.1610  160.7653 C.3     1  UNL1        0.0747
      5 C         143.7269  140.0164  159.5624 C.3     1  UNL1        0.0369
      6 C         143.5323  139.4554  158.1850 C.3     1  UNL1        0.0740
      7 C         142.9320  133.4319  156.4382 C.ar    1  UNL1        0.0500
      8 C         142.7123  133.3282  154.9581 C.ar    1  UNL1        0.0143
      9 C         142.5623  134.5721  154.1331 C.ar    1  UNL1       -0.0033
     10 C         142.6321  135.9195  154.7884 C.ar    1  UNL1       -0.0247
     11 C         142.8517  136.0232  156.2686 C.ar    1  UNL1       -0.0105
     12 C         143.0017  134.7794  157.0935 C.ar    1  UNL1        0.0114
     13 C         142.8755  137.4781  156.6329 C.3     1  UNL1        0.0802
     14 C         142.6706  138.2736  155.3778 C.3     1  UNL1        0.0251
     15 C         142.5201  137.3104  154.2379 C.3     1  UNL1        0.0278
     16 C         144.5235  130.1818  158.0673 C.3     1  UNL1        0.0949
     17 C         144.3735  131.4256  157.2423 C.2     1  UNL1        0.2266
     18 O         145.5151  131.9069  156.3966 O.2     1  UNL1       -0.2748
     19 N         143.0820  132.1881  157.2632 N.am    1  UNL1       -0.2839
     20 H         142.3327  131.8723  157.8182 H       1  UNL1        0.1549
     21 N         143.6540  139.7220  162.1427 N.am    1  UNL1       -0.2999
     22 C         142.4670  140.1578  162.9496 C.2     1  UNL1        0.2806
     23 O         141.0855  140.0328  162.3791 O.2     1  UNL1       -0.2668
     24 H         144.5608  139.8041  162.5172 H       1  UNL1        0.1498
     25 C         142.6617  140.7188  164.3272 C.ar    1  UNL1        0.2014
     26 C         143.5075  141.9415  164.5264 C.ar    1  UNL1        0.0843
     27 C         143.7022  142.5025  165.9038 C.ar    1  UNL1        0.2018
     28 O         144.5479  143.7252  166.1031 O.2     1  UNL1       -0.2864
     29 C         143.0511  141.8408  167.0821 C.ar    1  UNL1        0.0737
     30 C         143.2458  142.4017  168.4596 C.ar    1  UNL1        0.0085
     31 C         142.5947  141.7400  169.6377 C.ar    1  UNL1        0.0299
     32 C         141.7489  140.5173  169.4385 C.ar    1  UNL1        0.1432
     33 F         141.0978  139.8556  170.6168 F       1  UNL1       -0.2041
     34 C         141.5542  139.9563  168.0611 C.ar    1  UNL1        0.0672
     35 C         142.2053  140.6181  166.8829 C.ar    1  UNL1        0.1508
     36 O         142.0106  140.0571  165.5054 O.2     1  UNL1       -0.4486
@<TRIPOS>BOND
     1    16    17    1
     2    17    18    2
     3    17    19   am
     4    19     7    1
     5     7     8   ar
     6     8     9   ar
     7     9    10   ar
     8    10    11   ar
     9    11    12   ar
    10    11    13    1
    11    13     1    1
    12     1     2    1
    13     2     3    1
    14     3     4    1
    15     4    21    1
    16    21    22   am
    17    22    23    2
    18    22    25    1
    19    25    26   ar
    20    26    27   ar
    21    27    28    2
    22    27    29   ar
    23    29    30   ar
    24    30    31   ar
    25    31    32   ar
    26    32    33    1
    27    32    34   ar
    28    34    35   ar
    29    35    36   ar
    30     4     5    1
    31     5     6    1
    32    13    14    1
    33    14    15    1
    34    12     7   ar
    35     6     1    1
    36    15    10    1
    37    36    25   ar
    38    35    29   ar
    39    19    20    1
    40    21    24    1
@<TRIPOS>MOLECULE
*****
 36 40 0 0 0
SMALL
GASTEIGER

@<TRIPOS>ATOM
      1 N         143.7208  140.4395  162.2405 N.3     1  UNL1       -0.2702
      2 C         143.7345  138.9486  162.4041 C.3     1  UNL1        0.0740
      3 C         143.5636  138.0611  161.2069 C.3     1  UNL1        0.0369
      4 C         143.3790  138.6646  159.8461 C.3     1  UNL1        0.0747
      5 C         143.3654  140.1556  159.6825 C.3     1  UNL1        0.0369
      6 C         143.5362  141.0431  160.8796 C.3     1  UNL1        0.0740
      7 C         141.4394  140.4576  166.5429 C.ar    1  UNL1        0.0500
      8 C         141.9346  141.5364  167.4599 C.ar    1  UNL1        0.0143
      9 C         143.0231  142.4641  167.0075 C.ar    1  UNL1       -0.0033
     10 C         143.6164  142.3129  165.6383 C.ar    1  UNL1       -0.0247
     11 C         143.1212  141.2341  164.7212 C.ar    1  UNL1       -0.0105
     12 C         142.0327  140.3064  165.1736 C.ar    1  UNL1        0.0114
     13 C         143.8917  141.3270  163.4376 C.3     1  UNL1        0.0802
     14 C         144.8631  142.4633  163.5613 C.3     1  UNL1        0.0251
     15 C         144.6930  143.0726  164.9213 C.3     1  UNL1        0.0278
     16 C         137.8734  138.7531  166.9016 C.3     1  UNL1        0.0949
     17 C         138.9619  139.6808  166.4492 C.2     1  UNL1        0.2266
     18 O         138.6616  140.7593  165.4509 O.2     1  UNL1       -0.2748
     19 N         140.3508  139.5300  166.9952 N.am    1  UNL1       -0.2839
     20 H         140.5480  138.8222  167.6505 H       1  UNL1        0.1549
     21 N         143.2081  137.7771  158.6490 N.am    1  UNL1       -0.2999
     22 C         141.8600  137.6353  158.0068 C.2     1  UNL1        0.2806
     23 O         140.6827  138.3810  158.5618 O.2     1  UNL1       -0.2668
     24 H         143.9808  137.2877  158.2848 H       1  UNL1        0.1498
     25 C         141.6891  136.7478  156.8097 C.ar    1  UNL1        0.2014
     26 C         140.7042  137.1138  155.7392 C.ar    1  UNL1        0.0843
     27 C         140.5333  136.2264  154.5420 C.ar    1  UNL1        0.2018
     28 O         139.5484  136.5924  153.4715 O.2     1  UNL1       -0.2864
     29 C         141.3474  134.9728  154.4153 C.ar    1  UNL1        0.0737
     30 C         141.1765  134.0853  153.2182 C.ar    1  UNL1        0.0085
     31 C         141.9905  132.8319  153.0916 C.ar    1  UNL1        0.0299
     32 C         142.9755  132.4658  154.1621 C.ar    1  UNL1        0.1432
     33 F         143.7895  131.2123  154.0354 F       1  UNL1       -0.2041
     34 C         143.1463  133.3533  155.3592 C.ar    1  UNL1        0.0672
     35 C         142.3323  134.6068  155.4858 C.ar    1  UNL1        0.1508
     36 O         142.5032  135.4943  156.6830 O.2     1  UNL1       -0.4486
@<TRIPOS>BOND
     1    16    17    1
     2    17    18    2
     3    17    19   am
     4    19     7    1
     5     7     8   ar
     6     8     9   ar
     7     9    10   ar
     8    10    11   ar
     9    11    12   ar
    10    11    13    1
    11    13     1    1
    12     1     2    1
    13     2     3    1
    14     3     4    1
    15     4    21    1
    16    21    22   am
    17    22    23    2
    18    22    25    1
    19    25    26   ar
    20    26    27   ar
    21    27    28    2
    22    27    29   ar
    23    29    30   ar
    24    30    31   ar
    25    31    32   ar
    26    32    33    1
    27    32    34   ar
    28    34    35   ar
    29    35    36   ar
    30     4     5    1
    31     5     6    1
    32    13    14    1
    33    14    15    1
    34    12     7   ar
    35     6     1    1
    36    15    10    1
    37    36    25   ar
    38    35    29   ar
    39    19    20    1
    40    21    24    1
@<TRIPOS>MOLECULE
*****
 36 40 0 0 0
SMALL
GASTEIGER

@<TRIPOS>ATOM
      1 N         142.5891  140.4180  162.0634 N.3     1  UNL1       -0.2702
      2 C         143.9421  140.0066  161.5632 C.3     1  UNL1        0.0740
      3 C         144.0795  138.8085  160.6712 C.3     1  UNL1        0.0369
      4 C         142.8640  138.0217  160.2794 C.3     1  UNL1        0.0747
      5 C         141.5110  138.4331  160.7796 C.3     1  UNL1        0.0369
      6 C         141.3735  139.6312  161.6715 C.3     1  UNL1        0.0740
      7 C         140.5783  144.7785  161.2516 C.ar    1  UNL1        0.0500
      8 C         140.6638  145.6894  162.4402 C.ar    1  UNL1        0.0143
      9 C         141.3197  145.2149  163.7031 C.ar    1  UNL1       -0.0033
     10 C         141.8901  143.8297  163.7772 C.ar    1  UNL1       -0.0247
     11 C         141.8046  142.9188  162.5885 C.ar    1  UNL1       -0.0105
     12 C         141.1487  143.3932  161.3257 C.ar    1  UNL1        0.0114
     13 C         142.4516  141.6161  162.9553 C.3     1  UNL1        0.0802
     14 C         142.9369  141.7219  164.3707 C.3     1  UNL1        0.0251
     15 C         142.5899  143.0899  164.8786 C.3     1  UNL1        0.0278
     16 C         140.1020  146.0542  157.5239 C.3     1  UNL1        0.0949
     17 C         140.7580  145.5798  158.7867 C.2     1  UNL1        0.2266
     18 O         142.2495  145.4323  158.8475 O.2     1  UNL1       -0.2748
     19 N         139.9224  145.2529  159.9887 N.am    1  UNL1       -0.2839
     20 H         138.9435  145.3498  159.9489 H       1  UNL1        0.1549
     21 N         143.0015  136.8236  159.3875 N.am    1  UNL1       -0.2999
     22 C         142.7783  136.9587  157.9104 C.2     1  UNL1        0.2806
     23 O         142.4175  138.2919  157.3252 O.2     1  UNL1       -0.2668
     24 H         143.2383  135.9486  159.7716 H       1  UNL1        0.1498
     25 C         142.9158  135.7605  157.0184 C.ar    1  UNL1        0.2014
     26 C         142.4631  135.8328  155.5902 C.ar    1  UNL1        0.0843
     27 C         142.6006  134.6347  154.6982 C.ar    1  UNL1        0.2018
     28 O         142.1479  134.7071  153.2700 O.2     1  UNL1       -0.2864
     29 C         143.1908  133.3642  155.2345 C.ar    1  UNL1        0.0737
     30 C         143.3282  132.1661  154.3426 C.ar    1  UNL1        0.0085
     31 C         143.9184  130.8957  154.8789 C.ar    1  UNL1        0.0299
     32 C         144.3711  130.8233  156.3071 C.ar    1  UNL1        0.1432
     33 F         144.9613  129.5528  156.8434 F       1  UNL1       -0.2041
     34 C         144.2336  132.0214  157.1990 C.ar    1  UNL1        0.0672
     35 C         143.6434  133.2919  156.6627 C.ar    1  UNL1        0.1508
     36 O         143.5059  134.4901  157.5547 O.2     1  UNL1       -0.4486
@<TRIPOS>BOND
     1    16    17    1
     2    17    18    2
     3    17    19   am
     4    19     7    1
     5     7     8   ar
     6     8     9   ar
     7     9    10   ar
     8    10    11   ar
     9    11    12   ar
    10    11    13    1
    11    13     1    1
    12     1     2    1
    13     2     3    1
    14     3     4    1
    15     4    21    1
    16    21    22   am
    17    22    23    2
    18    22    25    1
    19    25    26   ar
    20    26    27   ar
    21    27    28    2
    22    27    29   ar
    23    29    30   ar
    24    30    31   ar
    25    31    32   ar
    26    32    33    1
    27    32    34   ar
    28    34    35   ar
    29    35    36   ar
    30     4     5    1
    31     5     6    1
    32    13    14    1
    33    14    15    1
    34    12     7   ar
    35     6     1    1
    36    15    10    1
    37    36    25   ar
    38    35    29   ar
    39    19    20    1
    40    21    24    1
@<TRIPOS>MOLECULE
*****
 36 40 0 0 0
SMALL
GASTEIGER

@<TRIPOS>ATOM
      1 N         141.3801  136.8457  156.1652 N.3     1  UNL1       -0.2702
      2 C         140.0859  137.4645  156.6037 C.3     1  UNL1        0.0740
      3 C         140.0572  138.3814  157.7905 C.3     1  UNL1        0.0369
      4 C         141.3225  138.6796  158.5387 C.3     1  UNL1        0.0747
      5 C         142.6167  138.0609  158.1002 C.3     1  UNL1        0.0369
      6 C         142.6455  137.1440  156.9134 C.3     1  UNL1        0.0740
      7 C         142.5230  132.1248  155.8154 C.ar    1  UNL1        0.0500
      8 C         142.4143  131.6017  154.4138 C.ar    1  UNL1        0.0143
      9 C         141.9894  132.5160  153.3030 C.ar    1  UNL1       -0.0033
     10 C         141.6733  133.9531  153.5938 C.ar    1  UNL1       -0.0247
     11 C         141.7821  134.4761  154.9955 C.ar    1  UNL1       -0.0105
     12 C         142.2069  133.5619  156.1063 C.ar    1  UNL1        0.0114
     13 C         141.4088  135.9288  154.9784 C.3     1  UNL1        0.0802
     14 C         141.0694  136.3037  153.5662 C.3     1  UNL1        0.0251
     15 C         141.2329  135.0826  152.7105 C.3     1  UNL1        0.0278
     16 C         144.8302  130.0414  158.2824 C.3     1  UNL1        0.0949
     17 C         144.4055  130.9556  157.1716 C.2     1  UNL1        0.2266
     18 O         145.4383  131.6147  156.3062 O.2     1  UNL1       -0.2748
     19 N         142.9478  131.2106  156.9262 N.am    1  UNL1       -0.2839
     20 H         142.2700  130.7780  157.4941 H       1  UNL1        0.1549
     21 N         141.2938  139.5965  159.7254 N.am    1  UNL1       -0.2999
     22 C         140.9509  139.0566  161.0823 C.2     1  UNL1        0.2806
     23 O         140.6369  137.5998  161.2523 O.2     1  UNL1       -0.2668
     24 H         141.4999  140.5527  159.6138 H       1  UNL1        0.1498
     25 C         140.9222  139.9736  162.2690 C.ar    1  UNL1        0.2014
     26 C         142.0374  139.9380  163.2715 C.ar    1  UNL1        0.0843
     27 C         142.0087  140.8550  164.4582 C.ar    1  UNL1        0.2018
     28 O         143.1239  140.8194  165.4607 O.2     1  UNL1       -0.2864
     29 C         140.8647  141.8075  164.6425 C.ar    1  UNL1        0.0737
     30 C         140.8359  142.7245  165.8293 C.ar    1  UNL1        0.0085
     31 C         139.6920  143.6770  166.0135 C.ar    1  UNL1        0.0299
     32 C         138.5767  143.7126  165.0111 C.ar    1  UNL1        0.1432
     33 F         137.4327  144.6651  165.1954 F       1  UNL1       -0.2041
     34 C         138.6054  142.7956  163.8243 C.ar    1  UNL1        0.0672
     35 C         139.7494  141.8431  163.6401 C.ar    1  UNL1        0.1508
     36 O         139.7782  140.9261  162.4533 O.2     1  UNL1       -0.4486
@<TRIPOS>BOND
     1    16    17    1
     2    17    18    2
     3    17    19   am
     4    19     7    1
     5     7     8   ar
     6     8     9   ar
     7     9    10   ar
     8    10    11   ar
     9    11    12   ar
    10    11    13    1
    11    13     1    1
    12     1     2    1
    13     2     3    1
    14     3     4    1
    15     4    21    1
    16    21    22   am
    17    22    23    2
    18    22    25    1
    19    25    26   ar
    20    26    27   ar
    21    27    28    2
    22    27    29   ar
    23    29    30   ar
    24    30    31   ar
    25    31    32   ar
    26    32    33    1
    27    32    34   ar
    28    34    35   ar
    29    35    36   ar
    30     4     5    1
    31     5     6    1
    32    13    14    1
    33    14    15    1
    34    12     7   ar
    35     6     1    1
    36    15    10    1
    37    36    25   ar
    38    35    29   ar
    39    19    20    1
    40    21    24    1
@<TRIPOS>MOLECULE
*****
 36 40 0 0 0
SMALL
GASTEIGER

@<TRIPOS>ATOM
      1 N         139.8397  139.1187  164.7044 N.3     1  UNL1       -0.2702
      2 C         139.4233  140.0886  163.6386 C.3     1  UNL1        0.0740
      3 C         140.0919  140.0604  162.2961 C.3     1  UNL1        0.0369
      4 C         141.1769  139.0622  162.0195 C.3     1  UNL1        0.0747
      5 C         141.5933  138.0923  163.0853 C.3     1  UNL1        0.0369
      6 C         140.9247  138.1205  164.4277 C.3     1  UNL1        0.0740
      7 C         141.0227  141.4689  168.8024 C.ar    1  UNL1        0.0500
      8 C         140.0594  141.2076  169.9221 C.ar    1  UNL1        0.0143
      9 C         138.8841  140.3014  169.7042 C.ar    1  UNL1       -0.0033
     10 C         138.6720  139.6566  168.3667 C.ar    1  UNL1       -0.0247
     11 C         139.6353  139.9179  167.2469 C.ar    1  UNL1       -0.0105
     12 C         140.8106  140.8240  167.4648 C.ar    1  UNL1        0.0114
     13 C         139.1711  139.1469  166.0468 C.3     1  UNL1        0.0802
     14 C         137.9210  138.4092  166.4248 C.3     1  UNL1        0.0251
     15 C         137.6125  138.7242  167.8586 C.3     1  UNL1        0.0278
     16 C         144.5797  142.7808  169.9757 C.3     1  UNL1        0.0949
     17 C         143.4043  141.8745  169.7579 C.2     1  UNL1        0.2266
     18 O         143.4353  140.4678  170.2778 O.2     1  UNL1       -0.2748
     19 N         142.1980  142.3751  169.0202 N.am    1  UNL1       -0.2839
     20 H         142.1777  143.2983  168.6790 H       1  UNL1        0.1549
     21 N         141.8455  139.0340  160.6770 N.am    1  UNL1       -0.2999
     22 C         142.6261  140.2238  160.2027 C.2     1  UNL1        0.2806
     23 O         142.7381  141.4419  161.0709 O.2     1  UNL1       -0.2668
     24 H         141.7719  138.2345  160.1072 H       1  UNL1        0.1498
     25 C         143.2947  140.1956  158.8602 C.ar    1  UNL1        0.2014
     26 C         142.8944  139.1669  157.8446 C.ar    1  UNL1        0.0843
     27 C         143.5629  139.1386  156.5021 C.ar    1  UNL1        0.2018
     28 O         143.1626  138.1099  155.4864 O.2     1  UNL1       -0.2864
     29 C         144.6318  140.1390  156.1753 C.ar    1  UNL1        0.0737
     30 C         145.3003  140.1107  154.8328 C.ar    1  UNL1        0.0085
     31 C         146.3691  141.1110  154.5060 C.ar    1  UNL1        0.0299
     32 C         146.7694  142.1397  155.5217 C.ar    1  UNL1        0.1432
     33 F         147.8383  143.1401  155.1949 F       1  UNL1       -0.2041
     34 C         146.1009  142.1680  156.8642 C.ar    1  UNL1        0.0672
     35 C         145.0321  141.1677  157.1909 C.ar    1  UNL1        0.1508
     36 O         144.3635  141.1959  158.5335 O.2     1  UNL1       -0.4486
@<TRIPOS>BOND
     1    16    17    1
     2    17    18    2
     3    17    19   am
     4    19     7    1
     5     7     8   ar
     6     8     9   ar
     7     9    10   ar
     8    10    11   ar
     9    11    12   ar
    10    11    13    1
    11    13     1    1
    12     1     2    1
    13     2     3    1
    14     3     4    1
    15     4    21    1
    16    21    22   am
    17    22    23    2
    18    22    25    1
    19    25    26   ar
    20    26    27   ar
    21    27    28    2
    22    27    29   ar
    23    29    30   ar
    24    30    31   ar
    25    31    32   ar
    26    32    33    1
    27    32    34   ar
    28    34    35   ar
    29    35    36   ar
    30     4     5    1
    31     5     6    1
    32    13    14    1
    33    14    15    1
    34    12     7   ar
    35     6     1    1
    36    15    10    1
    37    36    25   ar
    38    35    29   ar
    39    19    20    1
    40    21    24    1
@<TRIPOS>MOLECULE
*****
 36 40 0 0 0
SMALL
GASTEIGER

@<TRIPOS>ATOM
      1 N         142.7378  141.3073  163.4495 N.3     1  UNL1       -0.2702
      2 C         143.8860  142.0073  162.7850 C.3     1  UNL1        0.0740
      3 C         143.6321  142.9492  161.6454 C.3     1  UNL1        0.0369
      4 C         142.2300  143.1909  161.1704 C.3     1  UNL1        0.0747
      5 C         141.0818  142.4909  161.8349 C.3     1  UNL1        0.0369
      6 C         141.3357  141.5491  162.9744 C.3     1  UNL1        0.0740
      7 C         141.2822  141.4629  168.0942 C.ar    1  UNL1        0.0500
      8 C         141.7745  140.2961  168.8980 C.ar    1  UNL1        0.0143
      9 C         142.6217  139.2421  168.2486 C.ar    1  UNL1       -0.0033
     10 C         142.9763  139.3549  166.7956 C.ar    1  UNL1       -0.0247
     11 C         142.4840  140.5217  165.9918 C.ar    1  UNL1       -0.0105
     12 C         141.6369  141.5757  166.6411 C.ar    1  UNL1        0.0114
     13 C         142.9917  140.3655  164.5890 C.3     1  UNL1        0.0802
     14 C         143.7979  139.1022  164.5258 C.3     1  UNL1        0.0251
     15 C         143.7884  138.4776  165.8895 C.3     1  UNL1        0.0278
     16 C         140.2094  144.5545  170.3394 C.3     1  UNL1        0.0949
     17 C         141.0565  143.5005  169.6901 C.2     1  UNL1        0.2266
     18 O         142.5251  143.4302  169.9875 O.2     1  UNL1       -0.2748
     19 N         140.4351  142.5168  168.7435 N.am    1  UNL1       -0.2839
     20 H         139.4712  142.5630  168.5483 H       1  UNL1        0.1549
     21 N         141.9762  144.1327  160.0309 N.am    1  UNL1       -0.2999
     22 C         141.5735  143.5956  158.6894 C.2     1  UNL1        0.2806
     23 O         141.4248  142.1168  158.4875 O.2     1  UNL1       -0.2668
     24 H         142.0738  145.1034  160.1634 H       1  UNL1        0.1498
     25 C         141.3197  144.5375  157.5499 C.ar    1  UNL1        0.2014
     26 C         142.0484  144.3571  156.2512 C.ar    1  UNL1        0.0843
     27 C         141.7945  145.2989  155.1117 C.ar    1  UNL1        0.2018
     28 O         142.5232  145.1186  153.8131 O.2     1  UNL1       -0.2864
     29 C         140.8120  146.4212  155.2708 C.ar    1  UNL1        0.0737
     30 C         140.5582  147.3630  154.1313 C.ar    1  UNL1        0.0085
     31 C         139.5756  148.4851  154.2904 C.ar    1  UNL1        0.0299
     32 C         138.8469  148.6655  155.5890 C.ar    1  UNL1        0.1432
     33 F         137.8644  149.7877  155.7481 F       1  UNL1       -0.2041
     34 C         139.1008  147.7237  156.7286 C.ar    1  UNL1        0.0672
     35 C         140.0833  146.6015  156.5694 C.ar    1  UNL1        0.1508
     36 O         140.3372  145.6597  157.7090 O.2     1  UNL1       -0.4486
@<TRIPOS>BOND
     1    16    17    1
     2    17    18    2
     3    17    19   am
     4    19     7    1
     5     7     8   ar
     6     8     9   ar
     7     9    10   ar
     8    10    11   ar
     9    11    12   ar
    10    11    13    1
    11    13     1    1
    12     1     2    1
    13     2     3    1
    14     3     4    1
    15     4    21    1
    16    21    22   am
    17    22    23    2
    18    22    25    1
    19    25    26   ar
    20    26    27   ar
    21    27    28    2
    22    27    29   ar
    23    29    30   ar
    24    30    31   ar
    25    31    32   ar
    26    32    33    1
    27    32    34   ar
    28    34    35   ar
    29    35    36   ar
    30     4     5    1
    31     5     6    1
    32    13    14    1
    33    14    15    1
    34    12     7   ar
    35     6     1    1
    36    15    10    1
    37    36    25   ar
    38    35    29   ar
    39    19    20    1
    40    21    24    1
