@<TRIPOS>MOLECULE
*****
 35 38 0 0 0
SMALL
GASTEIGER

@<TRIPOS>ATOM
      1 C         142.3959  141.5950  163.1590 C.ar    1  UNL1        0.0709
      2 C         141.9015  142.3120  161.9378 C.ar    1  UNL1        0.0260
      3 C         142.8729  143.0122  161.0343 C.ar    1  UNL1        0.1225
      4 C         144.3388  142.9954  161.3522 C.ar    1  UNL1        0.0230
      5 C         144.8332  142.2783  162.5735 C.ar    1  UNL1        0.0384
      6 C         143.8617  141.5782  163.4769 C.ar    1  UNL1        0.1415
      7 C         140.0969  140.6981  167.8849 C.ar    1  UNL1        0.1405
      8 N         139.0124  139.7243  168.2393 N.ar    1  UNL1       -0.2333
      9 C         138.6322  138.9804  166.9935 C.ar    1  UNL1        0.0830
     10 C         137.5862  137.9103  166.8901 C.3     1  UNL1        0.0539
     11 C         139.4817  139.4945  165.8691 C.ar    1  UNL1        0.1533
     12 C         139.5479  139.1330  164.4148 C.ar    1  UNL1        0.2777
     13 O         138.6426  138.0714  163.8639 O.2     1  UNL1       -0.2655
     14 N         140.5193  139.8332  163.5115 N.ar    1  UNL1       -0.3037
     15 C         141.4245  140.8948  164.0624 C.ar    1  UNL1        0.1657
     16 N         141.3583  141.2563  165.5167 N.ar    1  UNL1       -0.1461
     17 N         140.3869  140.5561  166.4200 N.ar    1  UNL1       -0.2090
     18 H         140.5627  139.5960  162.5570 H       1  UNL1        0.1705
     19 C         140.7727  141.6474  168.8294 C.3     1  UNL1        0.0657
     20 C         140.3765  143.9834  169.8955 C.3     1  UNL1        0.0005
     21 C         140.5695  143.1261  168.6798 C.3     1  UNL1        0.0080
     22 S         142.3785  143.7292  159.8131 S.O2    1  UNL1        0.0634
     23 O         142.8090  142.5729  158.9600 O.2     1  UNL1       -0.1528
     24 O         141.9481  144.8854  160.6662 O.2     1  UNL1       -0.1528
     25 N         141.8841  144.4462  158.5919 N.3     1  UNL1       -0.1527
     26 C         142.5631  144.2340  157.2713 C.3     1  UNL1        0.1131
     27 C         142.0686  144.9511  156.0500 C.3     1  UNL1        0.0915
     28 N         140.8952  145.8802  156.1494 N.3     1  UNL1       -0.2702
     29 C         140.2163  146.0923  157.4700 C.3     1  UNL1        0.0915
     30 C         140.7107  145.3753  158.6912 C.3     1  UNL1        0.1131
     31 C         140.4008  146.5972  154.9282 C.3     1  UNL1        0.0722
     32 C         139.5211  147.8036  155.0714 C.3     1  UNL1        0.0188
     33 O         144.3561  140.8612  164.6982 O.3     1  UNL1       -0.4754
     34 C         144.4815  139.3664  164.6910 C.3     1  UNL1        0.2055
     35 C         143.7745  138.5495  165.7315 C.3     1  UNL1        0.0512
@<TRIPOS>BOND
     1    20    21    1
     2    21    19    1
     3    19     7    1
     4     7     8   ar
     5     8     9   ar
     6     9    10    1
     7     9    11   ar
     8    11    12   ar
     9    12    13    2
    10    12    14   ar
    11    14    15   ar
    12    15     1    1
    13     1     2   ar
    14     2     3   ar
    15     3    22    1
    16    22    23    2
    17    22    24    2
    18    22    25    1
    19    25    26    1
    20    26    27    1
    21    27    28    1
    22    28    31    1
    23    31    32    1
    24    28    29    1
    25    29    30    1
    26     3     4   ar
    27     4     5   ar
    28     5     6   ar
    29     6    33    1
    30    33    34    1
    31    34    35    1
    32    15    16   ar
    33    16    17   ar
    34    17     7   ar
    35    17    11   ar
    36     6     1   ar
    37    30    25    1
    38    14    18    1
@<TRIPOS>MOLECULE
*****
 35 38 0 0 0
SMALL
GASTEIGER

@<TRIPOS>ATOM
      1 C         139.4438  140.9959  163.4916 C.ar    1  UNL1        0.0709
      2 C         139.6599  141.9541  162.3580 C.ar    1  UNL1        0.0260
      3 C         138.9692  141.7310  161.0453 C.ar    1  UNL1        0.1225
      4 C         138.0623  140.5497  160.8662 C.ar    1  UNL1        0.0230
      5 C         137.8462  139.5914  161.9999 C.ar    1  UNL1        0.0384
      6 C         138.5369  139.8145  163.3125 C.ar    1  UNL1        0.1415
      7 C         143.4938  142.7201  166.4996 C.ar    1  UNL1        0.1405
      8 N         143.6544  142.6667  167.9900 N.ar    1  UNL1       -0.2333
      9 C         142.4319  142.0146  168.5648 C.ar    1  UNL1        0.0830
     10 C         142.1713  141.7573  170.0194 C.3     1  UNL1        0.0539
     11 C         141.5159  141.6650  167.4297 C.ar    1  UNL1        0.1533
     12 C         140.1689  141.0059  167.3934 C.ar    1  UNL1        0.2777
     13 O         139.5127  140.5699  168.6698 O.2     1  UNL1       -0.2655
     14 N         139.4783  140.7829  166.0807 N.ar    1  UNL1       -0.3037
     15 C         140.1345  141.2189  164.8043 C.ar    1  UNL1        0.1657
     16 N         141.4815  141.8780  164.8406 N.ar    1  UNL1       -0.1461
     17 N         142.1721  142.1010  166.1533 N.ar    1  UNL1       -0.2090
     18 H         138.5942  140.3503  166.0569 H       1  UNL1        0.1705
     19 C         144.4815  143.2922  165.5264 C.3     1  UNL1        0.0657
     20 C         144.7156  142.7357  162.9993 C.3     1  UNL1        0.0005
     21 C         145.0404  142.4319  164.4319 C.3     1  UNL1        0.0080
     22 S         139.1853  142.6893  159.9117 S.O2    1  UNL1        0.0634
     23 O         138.7387  143.8237  160.7856 O.2     1  UNL1       -0.1528
     24 O         139.6319  141.5549  159.0379 O.2     1  UNL1       -0.1528
     25 N         139.4014  143.6475  158.7782 N.3     1  UNL1       -0.1527
     26 C         140.0940  144.9553  159.0233 C.3     1  UNL1        0.1131
     27 C         140.3101  145.9136  157.8896 C.3     1  UNL1        0.0915
     28 N         139.8336  145.5641  156.5110 N.3     1  UNL1       -0.2702
     29 C         139.1411  144.2563  156.2658 C.3     1  UNL1        0.0915
     30 C         138.9250  143.2980  157.3994 C.3     1  UNL1        0.1131
     31 C         140.0498  146.5223  155.3774 C.3     1  UNL1        0.0722
     32 C         139.0994  147.6640  155.1689 C.3     1  UNL1        0.0188
     33 O         138.3208  138.8562  164.4462 O.3     1  UNL1       -0.4754
     34 C         139.1067  137.5802  164.5097 C.3     1  UNL1        0.2055
     35 C         140.3922  137.4523  163.7474 C.3     1  UNL1        0.0512
@<TRIPOS>BOND
     1    20    21    1
     2    21    19    1
     3    19     7    1
     4     7     8   ar
     5     8     9   ar
     6     9    10    1
     7     9    11   ar
     8    11    12   ar
     9    12    13    2
    10    12    14   ar
    11    14    15   ar
    12    15     1    1
    13     1     2   ar
    14     2     3   ar
    15     3    22    1
    16    22    23    2
    17    22    24    2
    18    22    25    1
    19    25    26    1
    20    26    27    1
    21    27    28    1
    22    28    31    1
    23    31    32    1
    24    28    29    1
    25    29    30    1
    26     3     4   ar
    27     4     5   ar
    28     5     6   ar
    29     6    33    1
    30    33    34    1
    31    34    35    1
    32    15    16   ar
    33    16    17   ar
    34    17     7   ar
    35    17    11   ar
    36     6     1   ar
    37    30    25    1
    38    14    18    1
@<TRIPOS>MOLECULE
*****
 35 38 0 0 0
SMALL
GASTEIGER

@<TRIPOS>ATOM
      1 C         141.3003  142.4501  163.4434 C.ar    1  UNL1        0.0709
      2 C         141.7188  141.4751  162.3832 C.ar    1  UNL1        0.0260
      3 C         141.7667  141.9040  160.9465 C.ar    1  UNL1        0.1225
      4 C         141.3962  143.3080  160.5702 C.ar    1  UNL1        0.0230
      5 C         140.9777  144.2830  161.6306 C.ar    1  UNL1        0.0384
      6 C         140.9298  143.8541  163.0671 C.ar    1  UNL1        0.1415
      7 C         139.1866  139.7626  167.5341 C.ar    1  UNL1        0.1405
      8 N         139.6387  139.7065  168.9632 N.ar    1  UNL1       -0.2333
      9 C         140.8561  140.5723  169.0986 C.ar    1  UNL1        0.0830
     10 C         141.6362  140.8060  170.3583 C.3     1  UNL1        0.0539
     11 C         141.1564  141.1635  167.7531 C.ar    1  UNL1        0.1533
     12 C         142.2361  142.0928  167.2835 C.ar    1  UNL1        0.2777
     13 O         143.2679  142.5932  168.2505 O.2     1  UNL1       -0.2655
     14 N         142.2841  142.5217  165.8470 N.ar    1  UNL1       -0.3037
     15 C         141.2523  142.0212  164.8800 C.ar    1  UNL1        0.1657
     16 N         140.1726  141.0919  165.3496 N.ar    1  UNL1       -0.1461
     17 N         140.1247  140.6630  166.7862 N.ar    1  UNL1       -0.2090
     18 H         142.9927  143.1316  165.5387 H       1  UNL1        0.1705
     19 C         138.0042  139.0444  166.9545 C.3     1  UNL1        0.0657
     20 C         138.9833  137.6587  164.9868 C.3     1  UNL1        0.0005
     21 C         138.1927  137.7283  166.2597 C.3     1  UNL1        0.0080
     22 S         142.1852  140.9290  159.8863 S.O2    1  UNL1        0.0634
     23 O         142.8101  142.0467  159.1051 O.2     1  UNL1       -0.1528
     24 O         141.5603  139.8113  160.6675 O.2     1  UNL1       -0.1528
     25 N         142.6037  139.9540  158.8261 N.3     1  UNL1       -0.1527
     26 C         142.3055  138.4932  158.9907 C.3     1  UNL1        0.1131
     27 C         142.7240  137.5181  157.9304 C.3     1  UNL1        0.0915
     28 N         143.4407  138.0039  156.7055 N.3     1  UNL1       -0.2702
     29 C         143.7389  139.4647  156.5409 C.3     1  UNL1        0.0915
     30 C         143.3204  140.4398  157.6011 C.3     1  UNL1        0.1131
     31 C         143.8592  137.0289  155.6453 C.3     1  UNL1        0.0722
     32 C         142.9573  135.8882  155.2772 C.3     1  UNL1        0.0188
     33 O         140.5112  144.8291  164.1274 O.3     1  UNL1       -0.4754
     34 C         139.1031  144.8167  164.6441 C.3     1  UNL1        0.2055
     35 C         138.0181  144.1536  163.8484 C.3     1  UNL1        0.0512
@<TRIPOS>BOND
     1    20    21    1
     2    21    19    1
     3    19     7    1
     4     7     8   ar
     5     8     9   ar
     6     9    10    1
     7     9    11   ar
     8    11    12   ar
     9    12    13    2
    10    12    14   ar
    11    14    15   ar
    12    15     1    1
    13     1     2   ar
    14     2     3   ar
    15     3    22    1
    16    22    23    2
    17    22    24    2
    18    22    25    1
    19    25    26    1
    20    26    27    1
    21    27    28    1
    22    28    31    1
    23    31    32    1
    24    28    29    1
    25    29    30    1
    26     3     4   ar
    27     4     5   ar
    28     5     6   ar
    29     6    33    1
    30    33    34    1
    31    34    35    1
    32    15    16   ar
    33    16    17   ar
    34    17     7   ar
    35    17    11   ar
    36     6     1   ar
    37    30    25    1
    38    14    18    1
@<TRIPOS>MOLECULE
*****
 35 38 0 0 0
SMALL
GASTEIGER

@<TRIPOS>ATOM
      1 C         142.7598  141.8022  163.5493 C.ar    1  UNL1        0.0709
      2 C         142.0490  142.4546  162.4008 C.ar    1  UNL1        0.0260
      3 C         142.7855  142.7346  161.1244 C.ar    1  UNL1        0.1225
      4 C         144.2329  142.3622  160.9965 C.ar    1  UNL1        0.0230
      5 C         144.9438  141.7098  162.1450 C.ar    1  UNL1        0.0384
      6 C         144.2072  141.4298  163.4214 C.ar    1  UNL1        0.1415
      7 C         139.1070  139.2378  166.4655 C.ar    1  UNL1        0.1405
      8 N         138.7675  139.4059  167.9169 N.ar    1  UNL1       -0.2333
      9 C         139.6596  140.4716  168.4811 C.ar    1  UNL1        0.0830
     10 C         139.6608  140.9609  169.8991 C.3     1  UNL1        0.0539
     11 C         140.5504  140.9622  167.3785 C.ar    1  UNL1        0.1533
     12 C         141.6284  142.0047  167.3478 C.ar    1  UNL1        0.2777
     13 O         141.9700  142.7672  168.5936 O.2     1  UNL1       -0.2655
     14 N         142.3649  142.2847  166.0714 N.ar    1  UNL1       -0.3037
     15 C         142.0233  141.5221  164.8257 C.ar    1  UNL1        0.1657
     16 N         140.9453  140.4796  164.8563 N.ar    1  UNL1       -0.1461
     17 N         140.2089  140.1996  166.1327 N.ar    1  UNL1       -0.2090
     18 H         143.0724  142.9689  166.0513 H       1  UNL1        0.1705
     19 C         138.4584  138.2766  165.5139 C.3     1  UNL1        0.0657
     20 C         138.8900  137.7122  163.0148 C.3     1  UNL1        0.0005
     21 C         139.2797  137.5967  164.4587 C.3     1  UNL1        0.0080
     22 S         142.0746  143.3871  159.9760 S.O2    1  UNL1        0.0634
     23 O         140.7795  143.2987  160.7274 O.2     1  UNL1       -0.1528
     24 O         143.3698  143.4754  159.2245 O.2     1  UNL1       -0.1528
     25 N         141.3637  144.0395  158.8275 N.3     1  UNL1       -0.1527
     26 C         140.7811  145.4123  158.9885 C.3     1  UNL1        0.1131
     27 C         140.0702  146.0647  157.8399 C.3     1  UNL1        0.0915
     28 N         139.9420  145.3443  156.5306 N.3     1  UNL1       -0.2702
     29 C         140.5246  143.9715  156.3696 C.3     1  UNL1        0.0915
     30 C         141.2355  143.3191  157.5180 C.3     1  UNL1        0.1131
     31 C         139.2311  145.9967  155.3821 C.3     1  UNL1        0.0722
     32 C         137.8553  145.5412  154.9954 C.3     1  UNL1        0.0188
     33 O         144.9181  140.7773  164.5699 O.3     1  UNL1       -0.4754
     34 C         144.9187  139.2830  164.7002 C.3     1  UNL1        0.2055
     35 C         143.9805  138.6135  165.6601 C.3     1  UNL1        0.0512
@<TRIPOS>BOND
     1    20    21    1
     2    21    19    1
     3    19     7    1
     4     7     8   ar
     5     8     9   ar
     6     9    10    1
     7     9    11   ar
     8    11    12   ar
     9    12    13    2
    10    12    14   ar
    11    14    15   ar
    12    15     1    1
    13     1     2   ar
    14     2     3   ar
    15     3    22    1
    16    22    23    2
    17    22    24    2
    18    22    25    1
    19    25    26    1
    20    26    27    1
    21    27    28    1
    22    28    31    1
    23    31    32    1
    24    28    29    1
    25    29    30    1
    26     3     4   ar
    27     4     5   ar
    28     5     6   ar
    29     6    33    1
    30    33    34    1
    31    34    35    1
    32    15    16   ar
    33    16    17   ar
    34    17     7   ar
    35    17    11   ar
    36     6     1   ar
    37    30    25    1
    38    14    18    1
@<TRIPOS>MOLECULE
*****
 35 38 0 0 0
SMALL
GASTEIGER

@<TRIPOS>ATOM
      1 C         141.3115  142.7210  163.5327 C.ar    1  UNL1        0.0709
      2 C         140.4376  142.5139  162.3313 C.ar    1  UNL1        0.0260
      3 C         140.8724  143.0263  160.9902 C.ar    1  UNL1        0.1225
      4 C         142.1812  143.7458  160.8506 C.ar    1  UNL1        0.0230
      5 C         143.0551  143.9529  162.0521 C.ar    1  UNL1        0.0384
      6 C         142.6203  143.4405  163.3931 C.ar    1  UNL1        0.1415
      7 C         138.8268  139.2378  166.7135 C.ar    1  UNL1        0.1405
      8 N         138.7094  139.2397  168.2089 N.ar    1  UNL1       -0.2333
      9 C         139.4389  140.4425  168.7295 C.ar    1  UNL1        0.0830
     10 C         139.5760  140.8350  170.1707 C.3     1  UNL1        0.0539
     11 C         140.0072  141.1840  167.5559 C.ar    1  UNL1        0.1533
     12 C         140.8202  142.4409  167.4608 C.ar    1  UNL1        0.2777
     13 O         141.1984  143.1855  168.7068 O.2     1  UNL1       -0.2655
     14 N         141.2550  142.9532  166.1198 N.ar    1  UNL1       -0.3037
     15 C         140.8767  142.2086  164.8738 C.ar    1  UNL1        0.1657
     16 N         140.0637  140.9517  164.9689 N.ar    1  UNL1       -0.1461
     17 N         139.6289  140.4394  166.3099 N.ar    1  UNL1       -0.2090
     18 H         141.7886  143.7782  166.0574 H       1  UNL1        0.1705
     19 C         138.2445  138.2140  165.7847 C.3     1  UNL1        0.0657
     20 C         138.9339  137.7297  163.3269 C.3     1  UNL1        0.0005
     21 C         139.1269  137.5083  164.7979 C.3     1  UNL1        0.0080
     22 S         139.9985  142.8192  159.7889 S.O2    1  UNL1        0.0634
     23 O         138.8536  143.4663  160.5102 O.2     1  UNL1       -0.1528
     24 O         141.1434  142.1721  159.0676 O.2     1  UNL1       -0.1528
     25 N         139.1246  142.6121  158.5875 N.3     1  UNL1       -0.1527
     26 C         139.1675  143.5904  157.4512 C.3     1  UNL1        0.1131
     27 C         138.2935  143.3832  156.2498 C.3     1  UNL1        0.0915
     28 N         137.3767  142.1979  156.1848 N.3     1  UNL1       -0.2702
     29 C         137.3338  141.2196  157.3210 C.3     1  UNL1        0.0915
     30 C         138.2077  141.4267  158.5224 C.3     1  UNL1        0.1131
     31 C         136.5027  141.9908  154.9834 C.3     1  UNL1        0.0722
     32 C         135.0826  141.5403  155.1577 C.3     1  UNL1        0.0188
     33 O         143.4942  143.6476  164.5945 O.3     1  UNL1       -0.4754
     34 C         144.7268  142.8127  164.7782 C.3     1  UNL1        0.2055
     35 C         144.7399  141.3840  164.3215 C.3     1  UNL1        0.0512
@<TRIPOS>BOND
     1    20    21    1
     2    21    19    1
     3    19     7    1
     4     7     8   ar
     5     8     9   ar
     6     9    10    1
     7     9    11   ar
     8    11    12   ar
     9    12    13    2
    10    12    14   ar
    11    14    15   ar
    12    15     1    1
    13     1     2   ar
    14     2     3   ar
    15     3    22    1
    16    22    23    2
    17    22    24    2
    18    22    25    1
    19    25    26    1
    20    26    27    1
    21    27    28    1
    22    28    31    1
    23    31    32    1
    24    28    29    1
    25    29    30    1
    26     3     4   ar
    27     4     5   ar
    28     5     6   ar
    29     6    33    1
    30    33    34    1
    31    34    35    1
    32    15    16   ar
    33    16    17   ar
    34    17     7   ar
    35    17    11   ar
    36     6     1   ar
    37    30    25    1
    38    14    18    1
@<TRIPOS>MOLECULE
*****
 35 38 0 0 0
SMALL
GASTEIGER

@<TRIPOS>ATOM
      1 C         139.3066  141.1047  163.1007 C.ar    1  UNL1        0.0709
      2 C         139.8916  140.2025  162.0549 C.ar    1  UNL1        0.0260
      3 C         139.5173  140.3835  160.6136 C.ar    1  UNL1        0.1225
      4 C         138.5580  141.4668  160.2183 C.ar    1  UNL1        0.0230
      5 C         137.9730  142.3690  161.2642 C.ar    1  UNL1        0.0384
      6 C         138.3473  142.1880  162.7054 C.ar    1  UNL1        0.1415
      7 C         142.4546  141.8961  167.3301 C.ar    1  UNL1        0.1405
      8 N         142.3007  141.3857  168.7322 N.ar    1  UNL1       -0.2333
      9 C         141.0491  140.5610  168.7904 C.ar    1  UNL1        0.0830
     10 C         140.5115  139.8588  170.0020 C.3     1  UNL1        0.0539
     11 C         140.4295  140.5616  167.4244 C.ar    1  UNL1        0.1533
     12 C         139.1866  139.9175  166.8857 C.ar    1  UNL1        0.2777
     13 O         138.3180  139.0923  167.7882 O.2     1  UNL1       -0.2655
     14 N         138.8124  140.0985  165.4445 N.ar    1  UNL1       -0.3037
     15 C         139.6810  140.9237  164.5420 C.ar    1  UNL1        0.1657
     16 N         140.9239  141.5679  165.0807 N.ar    1  UNL1       -0.1461
     17 N         141.2982  141.3868  166.5219 N.ar    1  UNL1       -0.2090
     18 H         137.9966  139.6757  165.0909 H       1  UNL1        0.1705
     19 C         143.5692  142.7636  166.8250 C.3     1  UNL1        0.0657
     20 C         143.9919  143.6638  164.4247 C.3     1  UNL1        0.0005
     21 C         144.1055  142.5639  165.4383 C.3     1  UNL1        0.0080
     22 S         140.1022  139.4813  159.5678 S.O2    1  UNL1        0.0634
     23 O         141.4468  139.5935  160.2231 O.2     1  UNL1       -0.1528
     24 O         138.7576  139.3691  158.9125 O.2     1  UNL1       -0.1528
     25 N         140.6872  138.5791  158.5220 N.3     1  UNL1       -0.1527
     26 C         142.1403  138.2111  158.5765 C.3     1  UNL1        0.1131
     27 C         142.7253  137.3089  157.5306 C.3     1  UNL1        0.0915
     28 N         141.8571  136.7747  156.4302 N.3     1  UNL1       -0.2702
     29 C         140.4040  137.1427  156.3757 C.3     1  UNL1        0.0915
     30 C         139.8190  138.0449  157.4215 C.3     1  UNL1        0.1131
     31 C         142.4420  135.8725  155.3844 C.3     1  UNL1        0.0722
     32 C         143.8388  135.3486  155.5418 C.3     1  UNL1        0.0188
     33 O         137.7624  143.0902  163.7513 O.3     1  UNL1       -0.4754
     34 C         138.4043  144.4140  164.0440 C.3     1  UNL1        0.2055
     35 C         138.6125  144.8488  165.4644 C.3     1  UNL1        0.0512
@<TRIPOS>BOND
     1    20    21    1
     2    21    19    1
     3    19     7    1
     4     7     8   ar
     5     8     9   ar
     6     9    10    1
     7     9    11   ar
     8    11    12   ar
     9    12    13    2
    10    12    14   ar
    11    14    15   ar
    12    15     1    1
    13     1     2   ar
    14     2     3   ar
    15     3    22    1
    16    22    23    2
    17    22    24    2
    18    22    25    1
    19    25    26    1
    20    26    27    1
    21    27    28    1
    22    28    31    1
    23    31    32    1
    24    28    29    1
    25    29    30    1
    26     3     4   ar
    27     4     5   ar
    28     5     6   ar
    29     6    33    1
    30    33    34    1
    31    34    35    1
    32    15    16   ar
    33    16    17   ar
    34    17     7   ar
    35    17    11   ar
    36     6     1   ar
    37    30    25    1
    38    14    18    1
@<TRIPOS>MOLECULE
*****
 35 38 0 0 0
SMALL
GASTEIGER

@<TRIPOS>ATOM
      1 C         138.9452  139.8558  158.3205 C.ar    1  UNL1        0.0709
      2 C         139.7838  138.6368  158.0745 C.ar    1  UNL1        0.0260
      3 C         139.9905  138.1386  156.6748 C.ar    1  UNL1        0.1225
      4 C         139.3584  138.8595  155.5211 C.ar    1  UNL1        0.0230
      5 C         138.5198  140.0786  155.7673 C.ar    1  UNL1        0.0384
      6 C         138.3132  140.5767  157.1669 C.ar    1  UNL1        0.1415
      7 C         138.6799  139.2093  163.6060 C.ar    1  UNL1        0.1405
      8 N         138.3927  140.2270  164.6699 N.ar    1  UNL1       -0.2333
      9 C         138.1735  141.5503  163.9984 C.ar    1  UNL1        0.0830
     10 C         137.8579  142.8459  164.6852 C.3     1  UNL1        0.0539
     11 C         138.3253  141.3505  162.5195 C.ar    1  UNL1        0.1533
     12 C         138.2189  142.2990  161.3625 C.ar    1  UNL1        0.2777
     13 O         137.9059  143.7458  161.6050 O.2     1  UNL1       -0.2655
     14 N         138.4256  141.8008  159.9628 N.ar    1  UNL1       -0.3037
     15 C         138.7386  140.3540  159.7203 C.ar    1  UNL1        0.1657
     16 N         138.8449  139.4055  160.8773 N.ar    1  UNL1       -0.1461
     17 N         138.6383  139.9037  162.2770 N.ar    1  UNL1       -0.2090
     18 H         138.3558  142.4234  159.2034 H       1  UNL1        0.1705
     19 C         138.9597  137.7530  163.8314 C.3     1  UNL1        0.0657
     20 C         141.3857  137.8971  164.7502 C.3     1  UNL1        0.0005
     21 C         140.3746  137.2548  163.8474 C.3     1  UNL1        0.0080
     22 S         140.8291  136.9195  156.4287 S.O2    1  UNL1        0.0634
     23 O         141.7940  137.3701  157.4851 O.2     1  UNL1       -0.1528
     24 O         139.8642  136.4689  155.3724 O.2     1  UNL1       -0.1528
     25 N         141.6677  135.7005  156.1827 N.3     1  UNL1       -0.1527
     26 C         142.9694  135.5268  156.9075 C.3     1  UNL1        0.1131
     27 C         143.8081  134.3077  156.6614 C.3     1  UNL1        0.0915
     28 N         143.3450  133.2623  155.6905 N.3     1  UNL1       -0.2702
     29 C         142.0433  133.4360  154.9657 C.3     1  UNL1        0.0915
     30 C         141.2047  134.6550  155.2117 C.3     1  UNL1        0.1131
     31 C         144.1836  132.0433  155.4445 C.3     1  UNL1        0.0722
     32 C         145.1409  131.5667  156.4964 C.3     1  UNL1        0.0188
     33 O         137.4745  141.7958  157.4130 O.3     1  UNL1       -0.4754
     34 C         137.5973  142.9858  156.5081 C.3     1  UNL1        0.2055
     35 C         136.5655  143.2311  155.4474 C.3     1  UNL1        0.0512
@<TRIPOS>BOND
     1    20    21    1
     2    21    19    1
     3    19     7    1
     4     7     8   ar
     5     8     9   ar
     6     9    10    1
     7     9    11   ar
     8    11    12   ar
     9    12    13    2
    10    12    14   ar
    11    14    15   ar
    12    15     1    1
    13     1     2   ar
    14     2     3   ar
    15     3    22    1
    16    22    23    2
    17    22    24    2
    18    22    25    1
    19    25    26    1
    20    26    27    1
    21    27    28    1
    22    28    31    1
    23    31    32    1
    24    28    29    1
    25    29    30    1
    26     3     4   ar
    27     4     5   ar
    28     5     6   ar
    29     6    33    1
    30    33    34    1
    31    34    35    1
    32    15    16   ar
    33    16    17   ar
    34    17     7   ar
    35    17    11   ar
    36     6     1   ar
    37    30    25    1
    38    14    18    1
@<TRIPOS>MOLECULE
*****
 35 38 0 0 0
SMALL
GASTEIGER

@<TRIPOS>ATOM
      1 C         142.3553  141.3449  160.8581 C.ar    1  UNL1        0.0709
      2 C         141.7367  142.3476  159.9298 C.ar    1  UNL1        0.0260
      3 C         142.5926  143.0817  158.9405 C.ar    1  UNL1        0.1225
      4 C         144.0670  142.8129  158.8795 C.ar    1  UNL1        0.0230
      5 C         144.6856  141.8101  159.8078 C.ar    1  UNL1        0.0384
      6 C         143.8298  141.0762  160.7971 C.ar    1  UNL1        0.1415
      7 C         138.5595  141.0903  164.5932 C.ar    1  UNL1        0.1405
      8 N         138.0515  139.8961  165.3454 N.ar    1  UNL1       -0.2333
      9 C         138.8108  138.6924  164.8713 C.ar    1  UNL1        0.0830
     10 C         138.6254  137.2854  165.3571 C.3     1  UNL1        0.0539
     11 C         139.7879  139.1428  163.8261 C.ar    1  UNL1        0.1533
     12 C         140.7990  138.3948  163.0087 C.ar    1  UNL1        0.2777
     13 O         140.9543  136.9128  163.1805 O.2     1  UNL1       -0.2655
     14 N         141.6548  139.1289  162.0194 N.ar    1  UNL1       -0.3037
     15 C         141.4995  140.6109  161.8475 C.ar    1  UNL1        0.1657
     16 N         140.4884  141.3588  162.6649 N.ar    1  UNL1       -0.1461
     17 N         139.6326  140.6248  163.6542 N.ar    1  UNL1       -0.2090
     18 H         142.3184  138.6380  161.4829 H       1  UNL1        0.1705
     19 C         138.0787  142.5023  164.7520 C.3     1  UNL1        0.0657
     20 C         138.3788  144.4567  163.0666 C.3     1  UNL1        0.0005
     21 C         137.6010  143.2710  163.5557 C.3     1  UNL1        0.0080
     22 S         141.9739  144.0844  158.0122 S.O2    1  UNL1        0.0634
     23 O         142.0877  143.1068  156.8803 O.2     1  UNL1       -0.1528
     24 O         141.8602  145.0621  159.1440 O.2     1  UNL1       -0.1528
     25 N         141.3553  145.0872  157.0839 N.3     1  UNL1       -0.1527
     26 C         141.7877  145.1473  155.6488 C.3     1  UNL1        0.1131
     27 C         141.1691  146.1502  154.7205 C.3     1  UNL1        0.0915
     28 N         140.1180  147.0927  155.2272 N.3     1  UNL1       -0.2702
     29 C         139.6856  147.0325  156.6623 C.3     1  UNL1        0.0915
     30 C         140.3042  146.0298  157.5906 C.3     1  UNL1        0.1131
     31 C         139.4994  148.0954  154.2990 C.3     1  UNL1        0.0722
     32 C         139.2530  149.4990  154.7673 C.3     1  UNL1        0.0188
     33 O         144.4484  140.0734  161.7255 O.3     1  UNL1       -0.4754
     34 C         144.9146  140.4989  163.0862 C.3     1  UNL1        0.2055
     35 C         145.6425  141.7992  163.2570 C.3     1  UNL1        0.0512
@<TRIPOS>BOND
     1    20    21    1
     2    21    19    1
     3    19     7    1
     4     7     8   ar
     5     8     9   ar
     6     9    10    1
     7     9    11   ar
     8    11    12   ar
     9    12    13    2
    10    12    14   ar
    11    14    15   ar
    12    15     1    1
    13     1     2   ar
    14     2     3   ar
    15     3    22    1
    16    22    23    2
    17    22    24    2
    18    22    25    1
    19    25    26    1
    20    26    27    1
    21    27    28    1
    22    28    31    1
    23    31    32    1
    24    28    29    1
    25    29    30    1
    26     3     4   ar
    27     4     5   ar
    28     5     6   ar
    29     6    33    1
    30    33    34    1
    31    34    35    1
    32    15    16   ar
    33    16    17   ar
    34    17     7   ar
    35    17    11   ar
    36     6     1   ar
    37    30    25    1
    38    14    18    1
@<TRIPOS>MOLECULE
*****
 35 38 0 0 0
SMALL
GASTEIGER

@<TRIPOS>ATOM
      1 C         143.3355  140.7239  162.4617 C.ar    1  UNL1        0.0709
      2 C         142.8802  139.7275  161.4371 C.ar    1  UNL1        0.0260
      3 C         143.1376  139.9782  159.9807 C.ar    1  UNL1        0.1225
      4 C         143.8504  141.2254  159.5490 C.ar    1  UNL1        0.0230
      5 C         144.3058  142.2219  160.5737 C.ar    1  UNL1        0.0384
      6 C         144.0483  141.9711  162.0299 C.ar    1  UNL1        0.1415
      7 C         141.0768  141.8625  167.1548 C.ar    1  UNL1        0.1405
      8 N         141.2064  141.1448  168.4655 N.ar    1  UNL1       -0.2333
      9 C         142.1251  139.9761  168.2652 C.ar    1  UNL1        0.0830
     10 C         142.5339  138.9858  169.3150 C.3     1  UNL1        0.0539
     11 C         142.5633  139.9716  166.8306 C.ar    1  UNL1        0.1533
     12 C         143.4686  139.0564  166.0606 C.ar    1  UNL1        0.2777
     13 O         144.1165  137.8906  166.7468 O.2     1  UNL1       -0.2655
     14 N         143.7260  139.3072  164.6043 N.ar    1  UNL1       -0.3037
     15 C         143.0781  140.4731  163.9180 C.ar    1  UNL1        0.1657
     16 N         142.1728  141.3882  164.6881 N.ar    1  UNL1       -0.1461
     17 N         141.9155  141.1375  166.1443 N.ar    1  UNL1       -0.2090
     18 H         144.3202  138.7066  164.0988 H       1  UNL1        0.1705
     19 C         140.2532  143.0899  166.8993 C.3     1  UNL1        0.0657
     20 C         138.8713  144.5718  165.2731 C.3     1  UNL1        0.0005
     21 C         139.6353  143.3111  165.5504 C.3     1  UNL1        0.0080
     22 S         142.6822  138.9818  158.9562 S.O2    1  UNL1        0.0634
     23 O         141.4728  138.6776  159.7896 O.2     1  UNL1       -0.1528
     24 O         143.8917  139.2860  158.1228 O.2     1  UNL1       -0.1528
     25 N         142.2269  137.9854  157.9317 N.3     1  UNL1       -0.1527
     26 C         140.9449  138.2092  157.1857 C.3     1  UNL1        0.1131
     27 C         140.4896  137.2127  156.1611 C.3     1  UNL1        0.0915
     28 N         141.3162  135.9924  155.8825 N.3     1  UNL1       -0.2702
     29 C         142.5981  135.7686  156.6285 C.3     1  UNL1        0.0915
     30 C         143.0535  136.7650  157.6530 C.3     1  UNL1        0.1131
     31 C         140.8608  134.9960  154.8580 C.3     1  UNL1        0.0722
     32 C         141.8450  134.4179  153.8847 C.3     1  UNL1        0.0188
     33 O         144.5037  142.9675  163.0546 O.3     1  UNL1       -0.4754
     34 C         144.0491  144.3943  162.9670 C.3     1  UNL1        0.2055
     35 C         142.9525  144.8884  163.8633 C.3     1  UNL1        0.0512
@<TRIPOS>BOND
     1    20    21    1
     2    21    19    1
     3    19     7    1
     4     7     8   ar
     5     8     9   ar
     6     9    10    1
     7     9    11   ar
     8    11    12   ar
     9    12    13    2
    10    12    14   ar
    11    14    15   ar
    12    15     1    1
    13     1     2   ar
    14     2     3   ar
    15     3    22    1
    16    22    23    2
    17    22    24    2
    18    22    25    1
    19    25    26    1
    20    26    27    1
    21    27    28    1
    22    28    31    1
    23    31    32    1
    24    28    29    1
    25    29    30    1
    26     3     4   ar
    27     4     5   ar
    28     5     6   ar
    29     6    33    1
    30    33    34    1
    31    34    35    1
    32    15    16   ar
    33    16    17   ar
    34    17     7   ar
    35    17    11   ar
    36     6     1   ar
    37    30    25    1
    38    14    18    1
