@<TRIPOS>MOLECULE
*****
 40 46 0 0 0
SMALL
GASTEIGER

@<TRIPOS>ATOM
      1 C         140.7321  141.1403  159.8979 C.3     1  UNL1        0.1706
      2 N         141.0676  140.0690  158.9030 N.3     1  UNL1       -0.2797
      3 C         142.3870  139.3597  158.9810 C.3     1  UNL1        0.1167
      4 C         143.3709  139.7218  160.0538 C.3     1  UNL1        0.0511
      5 C         143.0354  140.7931  161.0486 C.2     1  UNL1       -0.0037
      6 C         141.7160  141.5023  160.9707 C.2     1  UNL1        0.0800
      7 N         141.6643  142.5085  162.0819 N.2     1  UNL1       -0.2519
      8 C         142.9518  142.4211  162.8466 C.2     1  UNL1        0.0627
      9 C         143.4620  143.1700  164.0420 C.3     1  UNL1        0.0717
     10 C         144.8196  142.8586  164.5987 C.2     1  UNL1       -0.0198
     11 C         145.6670  141.7984  163.9601 C.2     1  UNL1       -0.0042
     12 C         145.1568  141.0495  162.7647 C.2     1  UNL1        0.0006
     13 C         143.7992  141.3609  162.2080 C.2     1  UNL1        0.0111
     14 H         141.0186  140.4990  157.9794 H       1  UNL1        0.1246
     15 C         139.4807  141.1517  159.0709 C.ar    1  UNL1        0.0439
     16 C         138.3197  140.2130  159.2155 C.ar    1  UNL1        0.1194
     17 N         137.2921  140.5850  158.1880 N.ar    1  UNL1       -0.1679
     18 N         137.8180  141.7536  157.4084 N.ar    1  UNL1       -0.2476
     19 C         137.1149  142.4496  156.2811 C.3     1  UNL1        0.1537
     20 C         139.1707  142.1038  157.9540 C.ar    1  UNL1        0.0945
     21 C         142.7226  138.2884  157.9861 C.ar    1  UNL1        0.1319
     22 N         142.2761  136.8577  158.0469 N.ar    1  UNL1       -0.2282
     23 C         142.8411  136.1447  156.8542 C.ar    1  UNL1        0.1171
     24 C         143.6367  137.1348  156.0563 C.ar    1  UNL1        0.0942
     25 N         143.5635  138.4597  156.7559 N.ar    1  UNL1       -0.3385
     26 H         143.9921  139.2950  156.4596 H       1  UNL1        0.1672
     27 C         142.6448  134.6960  156.5184 C.ar    1  UNL1        0.1006
     28 C         141.6900  134.3008  155.4311 C.ar    1  UNL1        0.0230
     29 C         141.4937  132.8522  155.0953 C.ar    1  UNL1        0.0328
     30 C         142.2523  131.7987  155.8467 C.ar    1  UNL1        0.1592
     31 F         142.0560  130.3499  155.5109 F       1  UNL1       -0.2025
     32 C         143.2071  132.1938  156.9340 C.ar    1  UNL1        0.1284
     33 N         143.4034  133.6425  157.2698 N.ar    1  UNL1       -0.2399
     34 C         138.4854  143.3568  162.1572 C.ar    1  UNL1        0.2262
     35 N         139.0685  144.3834  161.2320 N.ar    1  UNL1       -0.1116
     36 N         139.9811  143.6780  160.2730 N.ar    1  UNL1       -0.1096
     37 C         139.9620  142.2156  160.6056 C.ar    1  UNL1        0.2478
     38 O         139.0376  142.0169  161.7700 O.2     1  UNL1       -0.4213
     39 C         138.0258  144.0755  164.6113 C.3     1  UNL1        0.0103
     40 C         137.5196  143.6232  163.2736 C.3     1  UNL1        0.0870
@<TRIPOS>BOND
     1    39    40    1
     2    40    34    1
     3    34    35   ar
     4    35    36   ar
     5    36    37   ar
     6     1    37    1
     7     1    15    1
     8    15    16   ar
     9    16    17   ar
    10    17    18   ar
    11    18    19    1
    12    18    20   ar
    13     1     2    1
    14     2     3    1
    15     3    21    1
    16    21    22   ar
    17    22    23   ar
    18    23    27    1
    19    27    28   ar
    20    28    29   ar
    21    29    30   ar
    22    30    31    1
    23    30    32   ar
    24    32    33   ar
    25    23    24   ar
    26    24    25   ar
    27     3     4    1
    28     4     5    1
    29     5     6    2
    30     6     7    1
    31     7     8    2
    32     8     9    1
    33     9    10    1
    34    10    11    2
    35    11    12    1
    36    12    13    2
    37    37    38   ar
    38    38    34   ar
    39     6     1    1
    40    13     8    1
    41    20    15   ar
    42    25    21   ar
    43    13     5    1
    44    33    27   ar
    45     2    14    1
    46    25    26    1
@<TRIPOS>MOLECULE
*****
 40 46 0 0 0
SMALL
GASTEIGER

@<TRIPOS>ATOM
      1 C         140.0685  141.6398  160.8597 C.3     1  UNL1        0.1706
      2 N         140.7511  140.9731  159.7023 N.3     1  UNL1       -0.2797
      3 C         141.0154  139.4970  159.7364 C.3     1  UNL1        0.1167
      4 C         140.5970  138.6875  160.9279 C.3     1  UNL1        0.0511
      5 C         139.9144  139.3541  162.0853 C.2     1  UNL1       -0.0037
      6 C         139.6501  140.8303  162.0512 C.2     1  UNL1        0.0800
      7 N         138.9639  141.2079  163.3304 N.2     1  UNL1       -0.2519
      8 C         138.8041  139.9652  164.1552 C.2     1  UNL1        0.0627
      9 C         138.1995  139.7289  165.5074 C.3     1  UNL1        0.0717
     10 C         138.1824  138.3469  166.0901 C.2     1  UNL1       -0.0198
     11 C         138.7698  137.2011  165.3206 C.2     1  UNL1       -0.0042
     12 C         139.3744  137.4374  163.9683 C.2     1  UNL1        0.0006
     13 C         139.3915  138.8195  163.3856 C.2     1  UNL1        0.0111
     14 H         141.6553  141.4316  159.5899 H       1  UNL1        0.1246
     15 C         140.2746  142.8236  159.9619 C.ar    1  UNL1        0.0439
     16 C         141.2125  143.9671  160.2120 C.ar    1  UNL1        0.1194
     17 N         141.0965  144.9220  159.0609 N.ar    1  UNL1       -0.1679
     18 N         140.0870  144.3686  158.0995 N.ar    1  UNL1       -0.2476
     19 C         139.6603  145.0010  156.8080 C.3     1  UNL1        0.1537
     20 C         139.5789  143.0717  158.6563 C.ar    1  UNL1        0.0945
     21 C         141.6980  138.8303  158.5789 C.ar    1  UNL1        0.1319
     22 N         141.7108  137.3581  158.2919 N.ar    1  UNL1       -0.2282
     23 C         142.5084  137.1367  157.0410 C.ar    1  UNL1        0.1171
     24 C         142.9885  138.4720  156.5549 C.ar    1  UNL1        0.0942
     25 N         142.4876  139.5188  157.5054 N.ar    1  UNL1       -0.3385
     26 H         142.6489  140.4875  157.4367 H       1  UNL1        0.1672
     27 C         142.7784  135.8123  156.3904 C.ar    1  UNL1        0.1006
     28 C         142.4498  135.6078  154.9411 C.ar    1  UNL1        0.0230
     29 C         142.7199  134.2835  154.2905 C.ar    1  UNL1        0.0328
     30 C         143.3185  133.1638  155.0891 C.ar    1  UNL1        0.1592
     31 F         143.5885  131.8394  154.4384 F       1  UNL1       -0.2025
     32 C         143.6470  133.3683  156.5383 C.ar    1  UNL1        0.1284
     33 N         143.3770  134.6925  157.1889 N.ar    1  UNL1       -0.2399
     34 C         139.1150  144.3597  163.4593 C.ar    1  UNL1        0.2262
     35 N         137.9194  144.3922  162.5541 N.ar    1  UNL1       -0.1116
     36 N         138.1310  143.3772  161.4701 N.ar    1  UNL1       -0.1096
     37 C         139.4574  142.7175  161.7053 C.ar    1  UNL1        0.2478
     38 O         140.0656  143.3247  162.9347 O.2     1  UNL1       -0.4213
     39 C         138.3905  145.0934  165.8440 C.3     1  UNL1        0.0103
     40 C         139.3235  145.2126  164.6755 C.3     1  UNL1        0.0870
@<TRIPOS>BOND
     1    39    40    1
     2    40    34    1
     3    34    35   ar
     4    35    36   ar
     5    36    37   ar
     6     1    37    1
     7     1    15    1
     8    15    16   ar
     9    16    17   ar
    10    17    18   ar
    11    18    19    1
    12    18    20   ar
    13     1     2    1
    14     2     3    1
    15     3    21    1
    16    21    22   ar
    17    22    23   ar
    18    23    27    1
    19    27    28   ar
    20    28    29   ar
    21    29    30   ar
    22    30    31    1
    23    30    32   ar
    24    32    33   ar
    25    23    24   ar
    26    24    25   ar
    27     3     4    1
    28     4     5    1
    29     5     6    2
    30     6     7    1
    31     7     8    2
    32     8     9    1
    33     9    10    1
    34    10    11    2
    35    11    12    1
    36    12    13    2
    37    37    38   ar
    38    38    34   ar
    39     6     1    1
    40    13     8    1
    41    20    15   ar
    42    25    21   ar
    43    13     5    1
    44    33    27   ar
    45     2    14    1
    46    25    26    1
@<TRIPOS>MOLECULE
*****
 40 46 0 0 0
SMALL
GASTEIGER

@<TRIPOS>ATOM
      1 C         139.7090  141.6201  160.0808 C.3     1  UNL1        0.1706
      2 N         139.8147  140.8046  158.8263 N.3     1  UNL1       -0.2797
      3 C         139.6871  139.3113  158.8896 C.3     1  UNL1        0.1167
      4 C         139.4539  138.6337  160.2073 C.3     1  UNL1        0.0511
      5 C         139.3482  139.4492  161.4617 C.2     1  UNL1       -0.0037
      6 C         139.4758  140.9424  161.3985 C.2     1  UNL1        0.0800
      7 N         139.3291  141.4795  162.7913 N.2     1  UNL1       -0.2519
      8 C         139.1109  140.3183  163.7154 C.2     1  UNL1        0.0627
      9 C         138.9029  140.2413  165.1989 C.3     1  UNL1        0.0717
     10 C         138.7068  138.9096  165.8606 C.2     1  UNL1       -0.0198
     11 C         138.7186  137.6548  165.0389 C.2     1  UNL1       -0.0042
     12 C         138.9266  137.7317  163.5554 C.2     1  UNL1        0.0006
     13 C         139.1227  139.0634  162.8936 C.2     1  UNL1        0.0111
     14 H         140.7289  141.0051  158.4209 H       1  UNL1        0.1246
     15 C         139.9325  142.7128  159.0778 C.ar    1  UNL1        0.0439
     16 C         138.9604  143.1552  158.0246 C.ar    1  UNL1        0.1194
     17 N         139.5945  144.2708  157.2478 N.ar    1  UNL1       -0.1679
     18 N         140.9585  144.5180  157.8209 N.ar    1  UNL1       -0.2476
     19 C         141.9410  145.5472  157.3465 C.3     1  UNL1        0.1537
     20 C         141.1674  143.5550  158.9520 C.ar    1  UNL1        0.0945
     21 C         139.7928  138.4957  157.6350 C.ar    1  UNL1        0.1319
     22 N         140.7127  137.3316  157.4153 N.ar    1  UNL1       -0.2282
     23 C         140.4856  136.8174  156.0245 C.ar    1  UNL1        0.1171
     24 C         139.4253  137.6639  155.3848 C.ar    1  UNL1        0.0942
     25 N         138.9971  138.7012  156.3802 N.ar    1  UNL1       -0.3385
     26 H         138.3138  139.3950  156.2353 H       1  UNL1        0.1672
     27 C         141.1944  135.6600  155.3857 C.ar    1  UNL1        0.1006
     28 C         140.9544  135.3389  153.9402 C.ar    1  UNL1        0.0230
     29 C         141.6631  134.1815  153.3014 C.ar    1  UNL1        0.0328
     30 C         142.6118  133.3453  154.1079 C.ar    1  UNL1        0.1592
     31 F         143.3206  132.1879  153.4691 F       1  UNL1       -0.2025
     32 C         142.8519  133.6665  155.5533 C.ar    1  UNL1        0.1284
     33 N         142.1431  134.8238  156.1922 N.ar    1  UNL1       -0.2399
     34 C         140.3700  144.5668  162.5191 C.ar    1  UNL1        0.2262
     35 N         138.9059  144.7413  162.2438 N.ar    1  UNL1       -0.1116
     36 N         138.4800  143.6586  161.2969 N.ar    1  UNL1       -0.1096
     37 C         139.6810  142.8151  160.9870 C.ar    1  UNL1        0.2478
     38 O         140.8491  143.3763  161.7423 O.2     1  UNL1       -0.4213
     39 C         142.6493  145.0899  163.6509 C.3     1  UNL1        0.0103
     40 C         141.2080  145.4310  163.4141 C.3     1  UNL1        0.0870
@<TRIPOS>BOND
     1    39    40    1
     2    40    34    1
     3    34    35   ar
     4    35    36   ar
     5    36    37   ar
     6     1    37    1
     7     1    15    1
     8    15    16   ar
     9    16    17   ar
    10    17    18   ar
    11    18    19    1
    12    18    20   ar
    13     1     2    1
    14     2     3    1
    15     3    21    1
    16    21    22   ar
    17    22    23   ar
    18    23    27    1
    19    27    28   ar
    20    28    29   ar
    21    29    30   ar
    22    30    31    1
    23    30    32   ar
    24    32    33   ar
    25    23    24   ar
    26    24    25   ar
    27     3     4    1
    28     4     5    1
    29     5     6    2
    30     6     7    1
    31     7     8    2
    32     8     9    1
    33     9    10    1
    34    10    11    2
    35    11    12    1
    36    12    13    2
    37    37    38   ar
    38    38    34   ar
    39     6     1    1
    40    13     8    1
    41    20    15   ar
    42    25    21   ar
    43    13     5    1
    44    33    27   ar
    45     2    14    1
    46    25    26    1
@<TRIPOS>MOLECULE
*****
 40 46 0 0 0
SMALL
GASTEIGER

@<TRIPOS>ATOM
      1 C         141.6470  142.0281  161.6147 C.3     1  UNL1        0.1706
      2 N         141.8616  141.2635  160.3421 N.3     1  UNL1       -0.2797
      3 C         142.4000  139.8643  160.3897 C.3     1  UNL1        0.1167
      4 C         142.7239  139.2297  161.7097 C.3     1  UNL1        0.0511
      5 C         142.5093  139.9943  162.9822 C.2     1  UNL1       -0.0037
      6 C         141.9708  141.3935  162.9347 C.2     1  UNL1        0.0800
      7 N         141.8644  141.8973  164.3435 N.2     1  UNL1       -0.2519
      8 C         142.3371  140.8094  165.2618 C.2     1  UNL1        0.0627
      9 C         142.4561  140.7378  166.7553 C.3     1  UNL1        0.0717
     10 C         142.9736  139.4902  167.4074 C.2     1  UNL1       -0.0198
     11 C         143.3722  138.3140  166.5661 C.2     1  UNL1       -0.0042
     12 C         143.2532  138.3856  165.0725 C.2     1  UNL1        0.0006
     13 C         142.7357  139.6333  164.4204 C.2     1  UNL1        0.0111
     14 H         142.5110  141.8099  159.7763 H       1  UNL1        0.1246
     15 C         141.1939  143.0518  160.6162 C.ar    1  UNL1        0.0439
     16 C         139.7713  143.4173  160.3118 C.ar    1  UNL1        0.1194
     17 N         139.7822  144.4810  159.2543 N.ar    1  UNL1       -0.1679
     18 N         141.2115  144.7730  158.9051 N.ar    1  UNL1       -0.2476
     19 C         141.6851  145.7726  157.8921 C.3     1  UNL1        0.1537
     20 C         142.0840  143.8896  159.7468 C.ar    1  UNL1        0.0945
     21 C         142.6147  139.0997  159.1171 C.ar    1  UNL1        0.1319
     22 N         142.2856  137.6538  158.8912 N.ar    1  UNL1       -0.2282
     23 C         142.6636  137.3071  157.4816 C.ar    1  UNL1        0.1171
     24 C         143.2263  138.5388  156.8364 C.ar    1  UNL1        0.0942
     25 N         143.1960  139.6466  157.8472 N.ar    1  UNL1       -0.3385
     26 H         143.5038  140.5706  157.7025 H       1  UNL1        0.1672
     27 C         142.5065  135.9645  156.8314 C.ar    1  UNL1        0.1006
     28 C         141.5459  135.7905  155.6925 C.ar    1  UNL1        0.0230
     29 C         141.3888  134.4480  155.0423 C.ar    1  UNL1        0.0328
     30 C         142.1921  133.2793  155.5311 C.ar    1  UNL1        0.1592
     31 F         142.0350  131.9367  154.8809 F       1  UNL1       -0.2025
     32 C         143.1526  133.4533  156.6700 C.ar    1  UNL1        0.1284
     33 N         143.3098  134.7959  157.3202 N.ar    1  UNL1       -0.2399
     34 C         140.0463  144.5372  164.1063 C.ar    1  UNL1        0.2262
     35 N         141.3587  145.2064  163.8240 N.ar    1  UNL1       -0.1116
     36 N         142.1181  144.3479  162.8562 N.ar    1  UNL1       -0.1096
     37 C         141.2750  143.1483  162.5405 C.ar    1  UNL1        0.2478
     38 O         139.9946  143.2651  163.3130 O.2     1  UNL1       -0.4213
     39 C         137.6497  144.3489  165.0916 C.3     1  UNL1        0.0103
     40 C         138.9740  145.0500  165.0212 C.3     1  UNL1        0.0870
@<TRIPOS>BOND
     1    39    40    1
     2    40    34    1
     3    34    35   ar
     4    35    36   ar
     5    36    37   ar
     6     1    37    1
     7     1    15    1
     8    15    16   ar
     9    16    17   ar
    10    17    18   ar
    11    18    19    1
    12    18    20   ar
    13     1     2    1
    14     2     3    1
    15     3    21    1
    16    21    22   ar
    17    22    23   ar
    18    23    27    1
    19    27    28   ar
    20    28    29   ar
    21    29    30   ar
    22    30    31    1
    23    30    32   ar
    24    32    33   ar
    25    23    24   ar
    26    24    25   ar
    27     3     4    1
    28     4     5    1
    29     5     6    2
    30     6     7    1
    31     7     8    2
    32     8     9    1
    33     9    10    1
    34    10    11    2
    35    11    12    1
    36    12    13    2
    37    37    38   ar
    38    38    34   ar
    39     6     1    1
    40    13     8    1
    41    20    15   ar
    42    25    21   ar
    43    13     5    1
    44    33    27   ar
    45     2    14    1
    46    25    26    1
@<TRIPOS>MOLECULE
*****
 40 46 0 0 0
SMALL
GASTEIGER

@<TRIPOS>ATOM
      1 C         141.8762  143.7035  159.3768 C.3     1  UNL1        0.1706
      2 N         142.6021  143.3613  158.1095 N.3     1  UNL1       -0.2797
      3 C         143.9571  142.7209  158.1708 C.3     1  UNL1        0.1167
      4 C         144.5863  142.4227  159.4994 C.3     1  UNL1        0.0511
      5 C         143.8604  142.7648  160.7667 C.2     1  UNL1       -0.0037
      6 C         142.5054  143.4052  160.7054 C.2     1  UNL1        0.0800
      7 N         142.0337  143.6272  162.1118 N.2     1  UNL1       -0.2519
      8 C         143.0971  143.1240  163.0424 C.2     1  UNL1        0.0627
      9 C         143.1832  143.0823  164.5393 C.3     1  UNL1        0.0717
     10 C         144.3984  142.5076  165.2048 C.2     1  UNL1       -0.0198
     11 C         145.5274  141.9745  164.3735 C.2     1  UNL1       -0.0042
     12 C         145.4413  142.0163  162.8766 C.2     1  UNL1        0.0006
     13 C         144.2261  142.5910  162.2110 C.2     1  UNL1        0.0111
     14 H         142.7109  144.2314  157.5884 H       1  UNL1        0.1246
     15 C         140.8741  144.1778  158.3665 C.ar    1  UNL1        0.0439
     16 C         139.6969  143.3987  157.8593 C.ar    1  UNL1        0.1194
     17 N         138.9685  144.2539  156.8653 N.ar    1  UNL1       -0.1679
     18 N         139.6954  145.5616  156.7582 N.ar    1  UNL1       -0.2476
     19 C         139.3120  146.7139  155.8779 C.3     1  UNL1        0.1537
     20 C         140.8732  145.5146  157.6859 C.ar    1  UNL1        0.0945
     21 C         144.6830  142.3787  156.9034 C.ar    1  UNL1        0.1319
     22 N         146.1716  142.3302  156.7257 N.ar    1  UNL1       -0.2282
     23 C         146.4563  141.9465  155.3038 C.ar    1  UNL1        0.1171
     24 C         145.1437  141.7579  154.6028 C.ar    1  UNL1        0.0942
     25 N         144.0477  142.0250  155.5915 N.ar    1  UNL1       -0.3385
     26 H         143.0811  141.9767  155.4110 H       1  UNL1        0.1672
     27 C         147.8152  141.7805  154.6906 C.ar    1  UNL1        0.1006
     28 C         149.0337  141.7491  155.5648 C.ar    1  UNL1        0.0230
     29 C         150.3926  141.5831  154.9516 C.ar    1  UNL1        0.0328
     30 C         150.5329  141.4487  153.4643 C.ar    1  UNL1        0.1592
     31 F         151.8918  141.2827  152.8511 F       1  UNL1       -0.2025
     32 C         149.3143  141.4801  152.5901 C.ar    1  UNL1        0.1284
     33 N         147.9555  141.6461  153.2033 N.ar    1  UNL1       -0.2399
     34 C         138.9295  144.2855  161.8351 C.ar    1  UNL1        0.2262
     35 N         139.3702  145.6949  161.5721 N.ar    1  UNL1       -0.1116
     36 N         140.5278  145.6485  160.6192 N.ar    1  UNL1       -0.1096
     37 C         140.8023  144.2104  160.2933 C.ar    1  UNL1        0.2478
     38 O         139.8146  143.3680  161.0447 O.2     1  UNL1       -0.4213
     39 C         138.0925  143.1728  164.0286 C.3     1  UNL1        0.0103
     40 C         137.8016  143.8671  162.7311 C.3     1  UNL1        0.0870
@<TRIPOS>BOND
     1    39    40    1
     2    40    34    1
     3    34    35   ar
     4    35    36   ar
     5    36    37   ar
     6     1    37    1
     7     1    15    1
     8    15    16   ar
     9    16    17   ar
    10    17    18   ar
    11    18    19    1
    12    18    20   ar
    13     1     2    1
    14     2     3    1
    15     3    21    1
    16    21    22   ar
    17    22    23   ar
    18    23    27    1
    19    27    28   ar
    20    28    29   ar
    21    29    30   ar
    22    30    31    1
    23    30    32   ar
    24    32    33   ar
    25    23    24   ar
    26    24    25   ar
    27     3     4    1
    28     4     5    1
    29     5     6    2
    30     6     7    1
    31     7     8    2
    32     8     9    1
    33     9    10    1
    34    10    11    2
    35    11    12    1
    36    12    13    2
    37    37    38   ar
    38    38    34   ar
    39     6     1    1
    40    13     8    1
    41    20    15   ar
    42    25    21   ar
    43    13     5    1
    44    33    27   ar
    45     2    14    1
    46    25    26    1
@<TRIPOS>MOLECULE
*****
 40 46 0 0 0
SMALL
GASTEIGER

@<TRIPOS>ATOM
      1 C         140.9917  142.3072  160.2007 C.3     1  UNL1        0.1706
      2 N         141.9735  142.1596  159.0763 N.3     1  UNL1       -0.2797
      3 C         142.7752  140.8990  158.9414 C.3     1  UNL1        0.1167
      4 C         142.5950  139.7860  159.9307 C.3     1  UNL1        0.0511
      5 C         141.6132  139.9336  161.0551 C.2     1  UNL1       -0.0037
      6 C         140.8115  141.1942  161.1901 C.2     1  UNL1        0.0800
      7 N         139.9257  141.0536  162.3924 N.2     1  UNL1       -0.2519
      8 C         140.1800  139.7062  163.0005 C.2     1  UNL1        0.0627
      9 C         139.5966  139.0201  164.2001 C.3     1  UNL1        0.0717
     10 C         140.0561  137.6419  164.5731 C.2     1  UNL1       -0.0198
     11 C         141.0990  136.9497  163.7465 C.2     1  UNL1       -0.0042
     12 C         141.6824  137.6357  162.5470 C.2     1  UNL1        0.0006
     13 C         141.2229  139.0140  162.1740 C.2     1  UNL1        0.0111
     14 H         142.6415  142.9251  159.1663 H       1  UNL1        0.1246
     15 C         140.8087  143.6311  159.5197 C.ar    1  UNL1        0.0439
     16 C         141.1915  144.9699  160.0776 C.ar    1  UNL1        0.1194
     17 N         140.8302  146.0148  159.0639 N.ar    1  UNL1       -0.1679
     18 N         140.2242  145.3219  157.8795 N.ar    1  UNL1       -0.2476
     19 C         139.7201  145.9857  156.6325 C.3     1  UNL1        0.1537
     20 C         140.2110  143.8487  158.1613 C.ar    1  UNL1        0.0945
     21 C         143.7571  140.7514  157.8170 C.ar    1  UNL1        0.1319
     22 N         144.6510  141.8295  157.2799 N.ar    1  UNL1       -0.2282
     23 C         145.4638  141.2442  156.1633 C.ar    1  UNL1        0.1171
     24 C         145.0721  139.8043  156.0103 C.ar    1  UNL1        0.0942
     25 N         144.0173  139.4997  157.0323 N.ar    1  UNL1       -0.3385
     26 H         143.5737  138.6309  157.1649 H       1  UNL1        0.1672
     27 C         146.4884  141.9711  155.3436 C.ar    1  UNL1        0.1006
     28 C         147.9094  141.4914  155.3220 C.ar    1  UNL1        0.0230
     29 C         148.9340  142.2183  154.5023 C.ar    1  UNL1        0.0328
     30 C         148.5375  143.4249  153.7043 C.ar    1  UNL1        0.1592
     31 F         149.5621  144.1519  152.8846 F       1  UNL1       -0.2025
     32 C         147.1164  143.9046  153.7260 C.ar    1  UNL1        0.1284
     33 N         146.0919  143.1777  154.5456 N.ar    1  UNL1       -0.2399
     34 C         138.8653  144.0179  162.9607 C.ar    1  UNL1        0.2262
     35 N         137.8102  143.6804  161.9494 N.ar    1  UNL1       -0.1116
     36 N         138.4783  142.9985  160.7923 N.ar    1  UNL1       -0.1096
     37 C         139.9462  142.9145  161.0886 C.ar    1  UNL1        0.2478
     38 O         140.1855  143.5445  162.4287 O.2     1  UNL1       -0.4213
     39 C         139.2726  144.1687  165.5222 C.3     1  UNL1        0.0103
     40 C         138.6398  144.7076  164.2735 C.3     1  UNL1        0.0870
@<TRIPOS>BOND
     1    39    40    1
     2    40    34    1
     3    34    35   ar
     4    35    36   ar
     5    36    37   ar
     6     1    37    1
     7     1    15    1
     8    15    16   ar
     9    16    17   ar
    10    17    18   ar
    11    18    19    1
    12    18    20   ar
    13     1     2    1
    14     2     3    1
    15     3    21    1
    16    21    22   ar
    17    22    23   ar
    18    23    27    1
    19    27    28   ar
    20    28    29   ar
    21    29    30   ar
    22    30    31    1
    23    30    32   ar
    24    32    33   ar
    25    23    24   ar
    26    24    25   ar
    27     3     4    1
    28     4     5    1
    29     5     6    2
    30     6     7    1
    31     7     8    2
    32     8     9    1
    33     9    10    1
    34    10    11    2
    35    11    12    1
    36    12    13    2
    37    37    38   ar
    38    38    34   ar
    39     6     1    1
    40    13     8    1
    41    20    15   ar
    42    25    21   ar
    43    13     5    1
    44    33    27   ar
    45     2    14    1
    46    25    26    1
@<TRIPOS>MOLECULE
*****
 40 46 0 0 0
SMALL
GASTEIGER

@<TRIPOS>ATOM
      1 C         139.5763  140.8968  159.4865 C.3     1  UNL1        0.1706
      2 N         139.8303  139.5734  158.8278 N.3     1  UNL1       -0.2797
      3 C         140.3462  139.5230  157.4202 C.3     1  UNL1        0.1167
      4 C         140.6081  140.7961  156.6714 C.3     1  UNL1        0.0511
      5 C         140.3541  142.1196  157.3302 C.2     1  UNL1       -0.0037
      6 C         139.8382  142.1699  158.7378 C.2     1  UNL1        0.0800
      7 N         139.6831  143.6112  159.1233 N.2     1  UNL1       -0.2519
      8 C         140.1032  144.4516  157.9540 C.2     1  UNL1        0.0627
      9 C         140.1617  145.9372  157.7552 C.3     1  UNL1        0.0717
     10 C         140.6348  146.5009  156.4482 C.2     1  UNL1       -0.0198
     11 C         141.0495  145.5790  155.3400 C.2     1  UNL1       -0.0042
     12 C         140.9911  144.0934  155.5388 C.2     1  UNL1        0.0006
     13 C         140.5179  143.5297  156.8458 C.2     1  UNL1        0.0111
     14 H         138.9455  139.0660  158.8354 H       1  UNL1        0.1246
     15 C         139.1781  139.9718  160.5982 C.ar    1  UNL1        0.0439
     16 C         137.7779  139.5583  160.9423 C.ar    1  UNL1        0.1194
     17 N         137.8448  138.6288  162.1178 N.ar    1  UNL1       -0.1679
     18 N         139.2862  138.4678  162.5001 N.ar    1  UNL1       -0.2476
     19 C         139.8114  137.6249  163.6241 C.3     1  UNL1        0.1537
     20 C         140.1103  139.2978  161.5610 C.ar    1  UNL1        0.0945
     21 C         140.6002  138.1996  156.7613 C.ar    1  UNL1        0.1319
     22 N         141.7083  137.2459  157.0970 N.ar    1  UNL1       -0.2282
     23 C         141.5837  136.0544  156.1943 C.ar    1  UNL1        0.1171
     24 C         140.3986  136.2717  155.3008 C.ar    1  UNL1        0.0942
     25 N         139.7908  137.5975  155.6512 N.ar    1  UNL1       -0.3385
     26 H         138.9995  138.0016  155.2271 H       1  UNL1        0.1672
     27 C         142.4858  134.8560  156.1865 C.ar    1  UNL1        0.1006
     28 C         142.5257  133.9551  154.9879 C.ar    1  UNL1        0.0230
     29 C         143.4278  132.7567  154.9800 C.ar    1  UNL1        0.0328
     30 C         144.2900  132.4593  156.1709 C.ar    1  UNL1        0.1592
     31 F         145.1921  131.2608  156.1631 F       1  UNL1       -0.2025
     32 C         144.2501  133.3602  157.3695 C.ar    1  UNL1        0.1284
     33 N         143.3480  134.5586  157.3773 N.ar    1  UNL1       -0.2399
     34 C         139.2639  143.3908  162.4441 C.ar    1  UNL1        0.2262
     35 N         137.8972  143.4916  161.8345 N.ar    1  UNL1       -0.1116
     36 N         137.8478  142.5696  160.6523 N.ar    1  UNL1       -0.1096
     37 C         139.1840  141.8990  160.5314 C.ar    1  UNL1        0.2478
     38 O         140.0593  142.4065  161.6388 O.2     1  UNL1       -0.4213
     39 C         138.7641  144.7536  164.5990 C.3     1  UNL1        0.0103
     40 C         139.7500  144.1424  163.6479 C.3     1  UNL1        0.0870
@<TRIPOS>BOND
     1    39    40    1
     2    40    34    1
     3    34    35   ar
     4    35    36   ar
     5    36    37   ar
     6     1    37    1
     7     1    15    1
     8    15    16   ar
     9    16    17   ar
    10    17    18   ar
    11    18    19    1
    12    18    20   ar
    13     1     2    1
    14     2     3    1
    15     3    21    1
    16    21    22   ar
    17    22    23   ar
    18    23    27    1
    19    27    28   ar
    20    28    29   ar
    21    29    30   ar
    22    30    31    1
    23    30    32   ar
    24    32    33   ar
    25    23    24   ar
    26    24    25   ar
    27     3     4    1
    28     4     5    1
    29     5     6    2
    30     6     7    1
    31     7     8    2
    32     8     9    1
    33     9    10    1
    34    10    11    2
    35    11    12    1
    36    12    13    2
    37    37    38   ar
    38    38    34   ar
    39     6     1    1
    40    13     8    1
    41    20    15   ar
    42    25    21   ar
    43    13     5    1
    44    33    27   ar
    45     2    14    1
    46    25    26    1
@<TRIPOS>MOLECULE
*****
 40 46 0 0 0
SMALL
GASTEIGER

@<TRIPOS>ATOM
      1 C         141.2263  140.2505  159.7576 C.3     1  UNL1        0.1706
      2 N         141.6923  138.9912  159.0889 N.3     1  UNL1       -0.2797
      3 C         142.2975  139.0500  157.7177 C.3     1  UNL1        0.1167
      4 C         142.4367  140.3680  157.0151 C.3     1  UNL1        0.0511
      5 C         141.9707  141.6272  157.6838 C.2     1  UNL1       -0.0037
      6 C         141.3655  141.5685  159.0551 C.2     1  UNL1        0.0800
      7 N         140.9991  142.9655  159.4602 N.2     1  UNL1       -0.2519
      8 C         141.3778  143.8876  158.3394 C.2     1  UNL1        0.0627
      9 C         141.2534  145.3735  158.1766 C.3     1  UNL1        0.0717
     10 C         141.7295  146.0324  156.9160 C.2     1  UNL1       -0.0198
     11 C         142.3300  145.2053  155.8181 C.2     1  UNL1       -0.0042
     12 C         142.4544  143.7194  155.9809 C.2     1  UNL1        0.0006
     13 C         141.9783  143.0605  157.2415 C.2     1  UNL1        0.0111
     14 H         140.8828  138.3737  159.0273 H       1  UNL1        0.1246
     15 C         140.8840  139.2491  160.8206 C.ar    1  UNL1        0.0439
     16 C         139.6588  138.3844  160.8556 C.ar    1  UNL1        0.1194
     17 N         139.7244  137.5375  162.0919 N.ar    1  UNL1       -0.1679
     18 N         140.9901  137.8787  162.8210 N.ar    1  UNL1       -0.2476
     19 C         141.4571  137.2691  164.1094 C.3     1  UNL1        0.1537
     20 C         141.7068  138.9365  162.0353 C.ar    1  UNL1        0.0945
     21 C         142.7635  137.7907  157.0489 C.ar    1  UNL1        0.1319
     22 N         142.1179  136.4415  157.1622 N.ar    1  UNL1       -0.2282
     23 C         142.9123  135.4766  156.3328 C.ar    1  UNL1        0.1171
     24 C         144.0487  136.2294  155.7069 C.ar    1  UNL1        0.0942
     25 N         143.9567  137.6597  156.1495 N.ar    1  UNL1       -0.3385
     26 H         144.5715  138.3850  155.8944 H       1  UNL1        0.1672
     27 C         142.6212  134.0152  156.1597 C.ar    1  UNL1        0.1006
     28 C         141.6031  133.5673  155.1533 C.ar    1  UNL1        0.0230
     29 C         141.3121  132.1061  154.9802 C.ar    1  UNL1        0.0328
     30 C         142.0392  131.0927  155.8135 C.ar    1  UNL1        0.1592
     31 F         141.7481  129.6314  155.6404 F       1  UNL1       -0.2025
     32 C         143.0573  131.5406  156.8199 C.ar    1  UNL1        0.1284
     33 N         143.3483  133.0018  156.9930 N.ar    1  UNL1       -0.2399
     34 C         139.0557  142.4409  162.1148 C.ar    1  UNL1        0.2262
     35 N         140.4269  142.6884  162.6702 N.ar    1  UNL1       -0.1116
     36 N         141.4070  141.8979  161.8548 N.ar    1  UNL1       -0.1096
     37 C         140.6414  141.1620  160.7955 C.ar    1  UNL1        0.2478
     38 O         139.1883  141.4975  160.9561 O.2     1  UNL1       -0.4213
     39 C         137.8112  144.0664  163.7144 C.3     1  UNL1        0.0103
     40 C         137.7765  143.0328  162.6279 C.3     1  UNL1        0.0870
@<TRIPOS>BOND
     1    39    40    1
     2    40    34    1
     3    34    35   ar
     4    35    36   ar
     5    36    37   ar
     6     1    37    1
     7     1    15    1
     8    15    16   ar
     9    16    17   ar
    10    17    18   ar
    11    18    19    1
    12    18    20   ar
    13     1     2    1
    14     2     3    1
    15     3    21    1
    16    21    22   ar
    17    22    23   ar
    18    23    27    1
    19    27    28   ar
    20    28    29   ar
    21    29    30   ar
    22    30    31    1
    23    30    32   ar
    24    32    33   ar
    25    23    24   ar
    26    24    25   ar
    27     3     4    1
    28     4     5    1
    29     5     6    2
    30     6     7    1
    31     7     8    2
    32     8     9    1
    33     9    10    1
    34    10    11    2
    35    11    12    1
    36    12    13    2
    37    37    38   ar
    38    38    34   ar
    39     6     1    1
    40    13     8    1
    41    20    15   ar
    42    25    21   ar
    43    13     5    1
    44    33    27   ar
    45     2    14    1
    46    25    26    1
@<TRIPOS>MOLECULE
*****
 40 46 0 0 0
SMALL
GASTEIGER

@<TRIPOS>ATOM
      1 C         140.0431  140.0378  160.9053 C.3     1  UNL1        0.1706
      2 N         140.6384  139.2694  159.7628 N.3     1  UNL1       -0.2797
      3 C         141.8112  138.3643  159.9980 C.3     1  UNL1        0.1167
      4 C         142.3888  138.2277  161.3756 C.3     1  UNL1        0.0511
      5 C         141.7936  138.9961  162.5180 C.2     1  UNL1       -0.0037
      6 C         140.6207  139.9012  162.2829 C.2     1  UNL1        0.0800
      7 N         140.2486  140.5278  163.5939 N.2     1  UNL1       -0.2519
      8 C         141.1915  140.0100  164.6394 C.2     1  UNL1        0.0627
      9 C         141.3039  140.2781  166.1109 C.3     1  UNL1        0.0717
     10 C         142.3712  139.5997  166.9174 C.2     1  UNL1       -0.0198
     11 C         143.3261  138.6531  166.2525 C.2     1  UNL1       -0.0042
     12 C         143.2136  138.3849  164.7809 C.2     1  UNL1        0.0006
     13 C         142.1463  139.0633  163.9744 C.2     1  UNL1        0.0111
     14 H         140.9308  139.9555  159.0671 H       1  UNL1        0.1246
     15 C         139.1512  140.4967  159.7900 C.ar    1  UNL1        0.0439
     16 C         137.9117  139.8018  159.3095 C.ar    1  UNL1        0.1194
     17 N         137.3367  140.6068  158.1819 N.ar    1  UNL1       -0.1679
     18 N         138.2208  141.7990  157.9654 N.ar    1  UNL1       -0.2476
     19 C         138.0189  142.8710  156.9359 C.3     1  UNL1        0.1537
     20 C         139.3423  141.7310  158.9593 C.ar    1  UNL1        0.0945
     21 C         142.4065  137.5959  158.8555 C.ar    1  UNL1        0.1319
     22 N         142.6843  136.1220  158.8341 N.ar    1  UNL1       -0.2282
     23 C         143.2780  135.7816  157.4993 C.ar    1  UNL1        0.1171
     24 C         143.3671  137.0450  156.6958 C.ar    1  UNL1        0.0942
     25 N         142.8285  138.1663  157.5340 N.ar    1  UNL1       -0.3385
     26 H         142.7633  139.1109  157.2641 H       1  UNL1        0.1672
     27 C         143.7072  134.4171  157.0474 C.ar    1  UNL1        0.1006
     28 C         143.3650  133.9424  155.6663 C.ar    1  UNL1        0.0230
     29 C         143.7942  132.5781  155.2143 C.ar    1  UNL1        0.0328
     30 C         144.5656  131.6884  156.1436 C.ar    1  UNL1        0.1592
     31 F         144.9948  130.3240  155.6916 F       1  UNL1       -0.2025
     32 C         144.9078  132.1631  157.5247 C.ar    1  UNL1        0.1284
     33 N         144.4786  133.5275  157.9766 N.ar    1  UNL1       -0.2399
     34 C         138.2629  142.9346  162.7774 C.ar    1  UNL1        0.2262
     35 N         137.2284  141.8523  162.8675 N.ar    1  UNL1       -0.1116
     36 N         137.7693  140.6353  162.1772 N.ar    1  UNL1       -0.1096
     37 C         139.1381  140.9656  161.6604 C.ar    1  UNL1        0.2478
     38 O         139.4433  142.3866  162.0313 O.2     1  UNL1       -0.4213
     39 C         138.1053  144.5323  164.8201 C.3     1  UNL1        0.0103
     40 C         138.1389  144.3215  163.3353 C.3     1  UNL1        0.0870
@<TRIPOS>BOND
     1    39    40    1
     2    40    34    1
     3    34    35   ar
     4    35    36   ar
     5    36    37   ar
     6     1    37    1
     7     1    15    1
     8    15    16   ar
     9    16    17   ar
    10    17    18   ar
    11    18    19    1
    12    18    20   ar
    13     1     2    1
    14     2     3    1
    15     3    21    1
    16    21    22   ar
    17    22    23   ar
    18    23    27    1
    19    27    28   ar
    20    28    29   ar
    21    29    30   ar
    22    30    31    1
    23    30    32   ar
    24    32    33   ar
    25    23    24   ar
    26    24    25   ar
    27     3     4    1
    28     4     5    1
    29     5     6    2
    30     6     7    1
    31     7     8    2
    32     8     9    1
    33     9    10    1
    34    10    11    2
    35    11    12    1
    36    12    13    2
    37    37    38   ar
    38    38    34   ar
    39     6     1    1
    40    13     8    1
    41    20    15   ar
    42    25    21   ar
    43    13     5    1
    44    33    27   ar
    45     2    14    1
    46    25    26    1
