@<TRIPOS>MOLECULE
*****
 38 42 0 0 0
SMALL
GASTEIGER

@<TRIPOS>ATOM
      1 C         141.7270  144.6073  163.0511 C.3     1  UNL1        0.1439
      2 C         142.5398  144.4265  164.2987 C.3     1  UNL1        0.0336
      3 C         143.8249  143.6543  164.2513 C.3     1  UNL1        0.0209
      4 C         144.2970  143.0629  162.9562 C.3     1  UNL1        0.0844
      5 C         143.4842  143.2437  161.7086 C.3     1  UNL1        0.1577
      6 O         142.1991  144.0159  161.7560 O.3     1  UNL1       -0.3523
      7 C         140.4418  145.3796  163.0986 C.3     1  UNL1        0.1601
      8 O         140.2727  146.6070  162.2532 O.3     1  UNL1       -0.3800
      9 H         141.0815  146.7600  161.7399 H       1  UNL1        0.2105
     10 C         139.3259  144.9244  163.9916 C.3     1  UNL1        0.1421
     11 C         140.4391  142.3364  167.5006 C.ar    1  UNL1        0.2263
     12 C         140.0388  140.8910  167.5234 C.ar    1  UNL1        0.0578
     13 C         139.2674  140.3083  166.3765 C.ar    1  UNL1        0.0078
     14 C         138.8964  141.1709  165.2068 C.ar    1  UNL1        0.0346
     15 C         138.1250  140.5881  164.0599 C.ar    1  UNL1        0.0079
     16 C         137.7539  141.4507  162.8903 C.ar    1  UNL1        0.0609
     17 C         138.1542  142.8962  162.8675 C.ar    1  UNL1        0.2621
     18 O         137.7832  143.7588  161.6978 O.2     1  UNL1       -0.2669
     19 N         138.9256  143.4790  164.0144 N.ar    1  UNL1       -0.2780
     20 C         139.2967  142.6163  165.1841 C.ar    1  UNL1        0.1492
     21 N         140.0680  143.1990  166.3310 N.ar    1  UNL1       -0.1942
     22 C         140.4961  143.6922  169.7162 C.3     1  UNL1        0.2542
     23 O         141.2105  142.9192  168.6475 O.3     1  UNL1       -0.4561
     24 N         145.5822  142.2906  162.9087 N.3     1  UNL1       -0.2915
     25 H         146.2867  142.8623  163.3747 H       1  UNL1        0.1236
     26 C         145.6589  140.9238  163.5218 C.3     1  UNL1        0.1152
     27 C         144.4069  140.1248  163.7322 C.ar    1  UNL1        0.0765
     28 C         144.1079  139.5406  165.0809 C.ar    1  UNL1        0.0193
     29 C         142.8559  138.7416  165.2914 C.ar    1  UNL1        0.0411
     30 C         141.9030  138.5269  164.1531 C.ar    1  UNL1        0.1708
     31 C         142.2021  139.1112  162.8042 C.ar    1  UNL1        0.1682
     32 N         143.4540  139.9101  162.5938 N.ar    1  UNL1       -0.2304
     33 N         141.2492  138.8965  161.6659 N.am    1  UNL1       -0.2639
     34 C         139.9972  138.0975  161.8764 C.2     1  UNL1        0.2718
     35 O         139.0443  137.8827  160.7380 O.2     1  UNL1       -0.2707
     36 C         139.6982  137.5132  163.2251 C.3     1  UNL1        0.2898
     37 O         140.6511  137.7280  164.3635 O.3     1  UNL1       -0.4628
     38 H         141.4454  139.2799  160.7806 H       1  UNL1        0.1565
@<TRIPOS>BOND
     1    22    23    1
     2    23    11    1
     3    11    12   ar
     4    12    13   ar
     5    13    14   ar
     6    14    15   ar
     7    15    16   ar
     8    16    17   ar
     9    17    18    2
    10    17    19   ar
    11    19    10    1
    12    10     7    1
    13     7     8    1
    14     7     1    1
    15     1     2    1
    16     2     3    1
    17     3     4    1
    18     4    24    1
    19    24    26    1
    20    26    27    1
    21    27    28   ar
    22    28    29   ar
    23    29    30   ar
    24    30    31   ar
    25    31    32   ar
    26    31    33    1
    27    33    34   am
    28    34    35    2
    29    34    36    1
    30    36    37    1
    31     4     5    1
    32     5     6    1
    33    19    20   ar
    34    20    21   ar
    35    21    11   ar
    36    20    14   ar
    37     6     1    1
    38    32    27   ar
    39    37    30    1
    40     8     9    1
    41    24    25    1
    42    33    38    1
@<TRIPOS>MOLECULE
*****
 38 42 0 0 0
SMALL
GASTEIGER

@<TRIPOS>ATOM
      1 C         143.4257  142.1533  163.9963 C.3     1  UNL1        0.1439
      2 C         142.4308  142.7294  164.9597 C.3     1  UNL1        0.0336
      3 C         141.7042  143.9967  164.6192 C.3     1  UNL1        0.0209
      4 C         141.9726  144.6879  163.3153 C.3     1  UNL1        0.0844
      5 C         142.9676  144.1117  162.3519 C.3     1  UNL1        0.1577
      6 O         143.6941  142.8444  162.6924 O.3     1  UNL1       -0.3523
      7 C         144.1523  140.8859  164.3369 C.3     1  UNL1        0.1601
      8 O         145.5408  140.6549  163.8186 O.3     1  UNL1       -0.3800
      9 H         145.8174  141.4160  163.2847 H       1  UNL1        0.2105
     10 C         143.4902  139.8495  165.1958 C.3     1  UNL1        0.1421
     11 C         139.6063  139.8588  167.4684 C.ar    1  UNL1        0.2263
     12 C         138.4290  139.0912  166.9445 C.ar    1  UNL1        0.0578
     13 C         138.5462  138.3205  165.6630 C.ar    1  UNL1        0.0078
     14 C         139.8408  138.3173  164.9055 C.ar    1  UNL1        0.0346
     15 C         139.9581  137.5466  163.6240 C.ar    1  UNL1        0.0079
     16 C         141.2527  137.5435  162.8664 C.ar    1  UNL1        0.0609
     17 C         142.4301  138.3111  163.3903 C.ar    1  UNL1        0.2621
     18 O         143.7247  138.3080  162.6328 O.2     1  UNL1       -0.2669
     19 N         142.3129  139.0819  164.6718 N.ar    1  UNL1       -0.2780
     20 C         141.0182  139.0850  165.4294 C.ar    1  UNL1        0.1492
     21 N         140.9009  139.8557  166.7109 N.ar    1  UNL1       -0.1942
     22 C         140.2776  141.8912  168.9412 C.3     1  UNL1        0.2542
     23 O         139.4891  140.6296  168.7499 O.3     1  UNL1       -0.4561
     24 N         141.2461  145.9553  162.9747 N.3     1  UNL1       -0.2915
     25 H         141.8516  146.4817  162.3450 H       1  UNL1        0.1236
     26 C         139.8951  145.8941  162.3258 C.3     1  UNL1        0.1152
     27 C         139.2099  144.5723  162.1433 C.ar    1  UNL1        0.0765
     28 C         138.3190  144.0339  163.2234 C.ar    1  UNL1        0.0193
     29 C         137.6338  142.7121  163.0409 C.ar    1  UNL1        0.0411
     30 C         137.8394  141.9286  161.7784 C.ar    1  UNL1        0.1708
     31 C         138.7303  142.4671  160.6983 C.ar    1  UNL1        0.1682
     32 N         139.4155  143.7888  160.8808 N.ar    1  UNL1       -0.2304
     33 N         138.9360  141.6836  159.4358 N.am    1  UNL1       -0.2639
     34 C         138.2507  140.3618  159.2534 C.2     1  UNL1        0.2718
     35 O         138.4564  139.5783  157.9909 O.2     1  UNL1       -0.2707
     36 C         137.3599  139.8234  160.3334 C.3     1  UNL1        0.2898
     37 O         137.1542  140.6069  161.5960 O.3     1  UNL1       -0.4628
     38 H         139.5207  142.0370  158.7269 H       1  UNL1        0.1565
@<TRIPOS>BOND
     1    22    23    1
     2    23    11    1
     3    11    12   ar
     4    12    13   ar
     5    13    14   ar
     6    14    15   ar
     7    15    16   ar
     8    16    17   ar
     9    17    18    2
    10    17    19   ar
    11    19    10    1
    12    10     7    1
    13     7     8    1
    14     7     1    1
    15     1     2    1
    16     2     3    1
    17     3     4    1
    18     4    24    1
    19    24    26    1
    20    26    27    1
    21    27    28   ar
    22    28    29   ar
    23    29    30   ar
    24    30    31   ar
    25    31    32   ar
    26    31    33    1
    27    33    34   am
    28    34    35    2
    29    34    36    1
    30    36    37    1
    31     4     5    1
    32     5     6    1
    33    19    20   ar
    34    20    21   ar
    35    21    11   ar
    36    20    14   ar
    37     6     1    1
    38    32    27   ar
    39    37    30    1
    40     8     9    1
    41    24    25    1
    42    33    38    1
@<TRIPOS>MOLECULE
*****
 38 42 0 0 0
SMALL
GASTEIGER

@<TRIPOS>ATOM
      1 C         142.5776  139.0627  162.3452 C.3     1  UNL1        0.1439
      2 C         142.9092  138.6418  163.7462 C.3     1  UNL1        0.0336
      3 C         141.8368  138.0875  164.6365 C.3     1  UNL1        0.0209
      4 C         140.4328  137.9541  164.1258 C.3     1  UNL1        0.0844
      5 C         140.1012  138.3750  162.7247 C.3     1  UNL1        0.1577
      6 O         141.1736  138.9292  161.8344 O.3     1  UNL1       -0.3523
      7 C         143.6501  139.6170  161.4548 C.3     1  UNL1        0.1601
      8 O         144.5906  138.6881  160.7459 O.3     1  UNL1       -0.3800
      9 H         144.3694  137.7707  160.9702 H       1  UNL1        0.2105
     10 C         143.7820  141.1001  161.2736 C.3     1  UNL1        0.1421
     11 C         140.1232  143.6464  161.8893 C.ar    1  UNL1        0.2263
     12 C         140.0351  144.5580  163.0772 C.ar    1  UNL1        0.0578
     13 C         141.1666  144.6208  164.0599 C.ar    1  UNL1        0.0078
     14 C         142.3862  143.7720  163.8547 C.ar    1  UNL1        0.0346
     15 C         143.5177  143.8348  164.8375 C.ar    1  UNL1        0.0079
     16 C         144.7373  142.9861  164.6322 C.ar    1  UNL1        0.0609
     17 C         144.8255  142.0745  163.4442 C.ar    1  UNL1        0.2621
     18 O         146.0451  141.2257  163.2390 O.2     1  UNL1       -0.2669
     19 N         143.6940  142.0117  162.4615 N.ar    1  UNL1       -0.2780
     20 C         142.4743  142.8605  162.6668 C.ar    1  UNL1        0.1492
     21 N         141.3428  142.7977  161.6840 N.ar    1  UNL1       -0.1942
     22 C         138.1435  142.3497  160.8172 C.3     1  UNL1        0.2542
     23 O         138.9917  143.5836  160.9065 O.3     1  UNL1       -0.4561
     24 N         139.3603  137.3998  165.0161 N.3     1  UNL1       -0.2915
     25 H         139.8267  136.8167  165.7110 H       1  UNL1        0.1236
     26 C         138.4552  138.3298  165.7683 C.3     1  UNL1        0.1152
     27 C         139.0195  139.5487  166.4359 C.ar    1  UNL1        0.0765
     28 C         139.4483  140.7252  165.6101 C.ar    1  UNL1        0.0193
     29 C         140.0126  141.9443  166.2776 C.ar    1  UNL1        0.0411
     30 C         140.1481  141.9868  167.7709 C.ar    1  UNL1        0.1708
     31 C         139.7193  140.8102  168.5966 C.ar    1  UNL1        0.1682
     32 N         139.1550  139.5912  167.9291 N.ar    1  UNL1       -0.2304
     33 N         139.8548  140.8526  170.0899 N.am    1  UNL1       -0.2639
     34 C         140.4192  142.0717  170.7574 C.2     1  UNL1        0.2718
     35 O         140.5547  142.1141  172.2507 O.2     1  UNL1       -0.2707
     36 C         140.8479  143.2482  169.9317 C.3     1  UNL1        0.2898
     37 O         140.7124  143.2057  168.4384 O.3     1  UNL1       -0.4628
     38 H         139.5734  140.0804  170.6319 H       1  UNL1        0.1565
@<TRIPOS>BOND
     1    22    23    1
     2    23    11    1
     3    11    12   ar
     4    12    13   ar
     5    13    14   ar
     6    14    15   ar
     7    15    16   ar
     8    16    17   ar
     9    17    18    2
    10    17    19   ar
    11    19    10    1
    12    10     7    1
    13     7     8    1
    14     7     1    1
    15     1     2    1
    16     2     3    1
    17     3     4    1
    18     4    24    1
    19    24    26    1
    20    26    27    1
    21    27    28   ar
    22    28    29   ar
    23    29    30   ar
    24    30    31   ar
    25    31    32   ar
    26    31    33    1
    27    33    34   am
    28    34    35    2
    29    34    36    1
    30    36    37    1
    31     4     5    1
    32     5     6    1
    33    19    20   ar
    34    20    21   ar
    35    21    11   ar
    36    20    14   ar
    37     6     1    1
    38    32    27   ar
    39    37    30    1
    40     8     9    1
    41    24    25    1
    42    33    38    1
@<TRIPOS>MOLECULE
*****
 38 42 0 0 0
SMALL
GASTEIGER

@<TRIPOS>ATOM
      1 C         138.1636  140.0135  162.7612 C.3     1  UNL1        0.1439
      2 C         137.9120  140.7861  164.0220 C.3     1  UNL1        0.0336
      3 C         137.7511  142.2765  163.9689 C.3     1  UNL1        0.0209
      4 C         137.8417  142.9942  162.6549 C.3     1  UNL1        0.0844
      5 C         138.0934  142.2215  161.3941 C.3     1  UNL1        0.1577
      6 O         138.2543  140.7312  161.4472 O.3     1  UNL1       -0.3523
      7 C         138.3246  138.5230  162.8144 C.3     1  UNL1        0.1601
      8 O         137.7127  137.6640  161.7478 O.3     1  UNL1       -0.3800
      9 H         137.2521  138.2257  161.1049 H       1  UNL1        0.2105
     10 C         139.0974  137.8916  163.9343 C.3     1  UNL1        0.1421
     11 C         140.1995  139.9264  167.7937 C.ar    1  UNL1        0.2263
     12 C         141.6205  140.3340  168.0474 C.ar    1  UNL1        0.0578
     13 C         142.6742  140.0634  167.0147 C.ar    1  UNL1        0.0078
     14 C         142.3069  139.3852  165.7283 C.ar    1  UNL1        0.0346
     15 C         143.3606  139.1146  164.6955 C.ar    1  UNL1        0.0079
     16 C         142.9933  138.4363  163.4091 C.ar    1  UNL1        0.0609
     17 C         141.5722  138.0287  163.1553 C.ar    1  UNL1        0.2621
     18 O         141.2048  137.3504  161.8688 O.2     1  UNL1       -0.2669
     19 N         140.5185  138.2993  164.1880 N.ar    1  UNL1       -0.2780
     20 C         140.8859  138.9776  165.4745 C.ar    1  UNL1        0.1492
     21 N         139.8322  139.2482  166.5072 N.ar    1  UNL1       -0.1942
     22 C         139.4562  141.0748  170.0024 C.3     1  UNL1        0.2542
     23 O         139.1458  140.1970  168.8264 O.3     1  UNL1       -0.4561
     24 N         137.6808  144.4846  162.6017 N.3     1  UNL1       -0.2915
     25 H         137.0774  144.7437  163.3822 H       1  UNL1        0.1236
     26 C         138.8877  145.3724  162.6742 C.3     1  UNL1        0.1152
     27 C         140.2615  144.7704  162.6918 C.ar    1  UNL1        0.0765
     28 C         140.9537  144.5197  163.9987 C.ar    1  UNL1        0.0193
     29 C         142.3276  143.9177  164.0163 C.ar    1  UNL1        0.0411
     30 C         143.0092  143.5666  162.7271 C.ar    1  UNL1        0.1708
     31 C         142.3169  143.8174  161.4202 C.ar    1  UNL1        0.1682
     32 N         140.9431  144.4193  161.4026 N.ar    1  UNL1       -0.2304
     33 N         142.9984  143.4662  160.1310 N.am    1  UNL1       -0.2639
     34 C         144.3723  142.8643  160.1486 C.2     1  UNL1        0.2718
     35 O         145.0539  142.5131  158.8594 O.2     1  UNL1       -0.2707
     36 C         145.0645  142.6135  161.4555 C.3     1  UNL1        0.2898
     37 O         144.3829  142.9647  162.7447 O.3     1  UNL1       -0.4628
     38 H         142.5441  143.6308  159.2732 H       1  UNL1        0.1565
@<TRIPOS>BOND
     1    22    23    1
     2    23    11    1
     3    11    12   ar
     4    12    13   ar
     5    13    14   ar
     6    14    15   ar
     7    15    16   ar
     8    16    17   ar
     9    17    18    2
    10    17    19   ar
    11    19    10    1
    12    10     7    1
    13     7     8    1
    14     7     1    1
    15     1     2    1
    16     2     3    1
    17     3     4    1
    18     4    24    1
    19    24    26    1
    20    26    27    1
    21    27    28   ar
    22    28    29   ar
    23    29    30   ar
    24    30    31   ar
    25    31    32   ar
    26    31    33    1
    27    33    34   am
    28    34    35    2
    29    34    36    1
    30    36    37    1
    31     4     5    1
    32     5     6    1
    33    19    20   ar
    34    20    21   ar
    35    21    11   ar
    36    20    14   ar
    37     6     1    1
    38    32    27   ar
    39    37    30    1
    40     8     9    1
    41    24    25    1
    42    33    38    1
@<TRIPOS>MOLECULE
*****
 38 42 0 0 0
SMALL
GASTEIGER

@<TRIPOS>ATOM
      1 C         142.9781  141.3486  166.3556 C.3     1  UNL1        0.1439
      2 C         143.1900  139.8657  166.4348 C.3     1  UNL1        0.0336
      3 C         143.7124  139.1181  165.2440 C.3     1  UNL1        0.0209
      4 C         144.0228  139.8533  163.9739 C.3     1  UNL1        0.0844
      5 C         143.8110  141.3362  163.8948 C.3     1  UNL1        0.1577
      6 O         143.2886  142.0838  165.0856 O.3     1  UNL1       -0.3523
      7 C         142.4558  142.0962  167.5465 C.3     1  UNL1        0.1601
      8 O         143.4091  142.6302  168.5742 O.3     1  UNL1       -0.3800
      9 H         144.3179  142.4069  168.3190 H       1  UNL1        0.2105
     10 C         140.9801  142.3098  167.7098 C.3     1  UNL1        0.1421
     11 C         139.1724  143.7830  163.8611 C.ar    1  UNL1        0.2263
     12 C         138.2021  142.9205  163.1098 C.ar    1  UNL1        0.0578
     13 C         137.8344  141.5669  163.6414 C.ar    1  UNL1        0.0078
     14 C         138.4369  141.0758  164.9242 C.ar    1  UNL1        0.0346
     15 C         138.0691  139.7222  165.4558 C.ar    1  UNL1        0.0079
     16 C         138.6716  139.2312  166.7386 C.ar    1  UNL1        0.0609
     17 C         139.6420  140.0937  167.4900 C.ar    1  UNL1        0.2621
     18 O         140.2445  139.6027  168.7729 O.2     1  UNL1       -0.2669
     19 N         140.0097  141.4473  166.9585 N.ar    1  UNL1       -0.2780
     20 C         139.4072  141.9383  165.6755 C.ar    1  UNL1        0.1492
     21 N         139.7750  143.2919  165.1440 N.ar    1  UNL1       -0.1942
     22 C         140.1036  145.2713  161.9460 C.3     1  UNL1        0.2542
     23 O         139.5402  145.1366  163.3296 O.3     1  UNL1       -0.4561
     24 N         144.5452  139.1057  162.7830 N.3     1  UNL1       -0.2915
     25 H         145.4203  138.6677  163.0709 H       1  UNL1        0.1236
     26 C         143.7125  138.0323  162.1469 C.3     1  UNL1        0.1152
     27 C         142.2331  138.2242  161.9913 C.ar    1  UNL1        0.0765
     28 C         141.2862  137.5611  162.9472 C.ar    1  UNL1        0.0193
     29 C         139.8066  137.7529  162.7917 C.ar    1  UNL1        0.0411
     30 C         139.2740  138.6079  161.6802 C.ar    1  UNL1        0.1708
     31 C         140.2209  139.2710  160.7243 C.ar    1  UNL1        0.1682
     32 N         141.7004  139.0791  160.8799 N.ar    1  UNL1       -0.2304
     33 N         139.6882  140.1259  159.6128 N.am    1  UNL1       -0.2639
     34 C         138.2087  140.3177  159.4573 C.2     1  UNL1        0.2718
     35 O         137.6760  141.1726  158.3458 O.2     1  UNL1       -0.2707
     36 C         137.2618  139.6546  160.4132 C.3     1  UNL1        0.2898
     37 O         137.7945  138.7997  161.5246 O.3     1  UNL1       -0.4628
     38 H         140.3097  140.5611  158.9854 H       1  UNL1        0.1565
@<TRIPOS>BOND
     1    22    23    1
     2    23    11    1
     3    11    12   ar
     4    12    13   ar
     5    13    14   ar
     6    14    15   ar
     7    15    16   ar
     8    16    17   ar
     9    17    18    2
    10    17    19   ar
    11    19    10    1
    12    10     7    1
    13     7     8    1
    14     7     1    1
    15     1     2    1
    16     2     3    1
    17     3     4    1
    18     4    24    1
    19    24    26    1
    20    26    27    1
    21    27    28   ar
    22    28    29   ar
    23    29    30   ar
    24    30    31   ar
    25    31    32   ar
    26    31    33    1
    27    33    34   am
    28    34    35    2
    29    34    36    1
    30    36    37    1
    31     4     5    1
    32     5     6    1
    33    19    20   ar
    34    20    21   ar
    35    21    11   ar
    36    20    14   ar
    37     6     1    1
    38    32    27   ar
    39    37    30    1
    40     8     9    1
    41    24    25    1
    42    33    38    1
@<TRIPOS>MOLECULE
*****
 38 42 0 0 0
SMALL
GASTEIGER

@<TRIPOS>ATOM
      1 C         138.2603  140.1995  164.4689 C.3     1  UNL1        0.1439
      2 C         138.6960  141.4128  165.2358 C.3     1  UNL1        0.0336
      3 C         138.5060  142.7797  164.6481 C.3     1  UNL1        0.0209
      4 C         137.8803  142.9333  163.2935 C.3     1  UNL1        0.0844
      5 C         137.4446  141.7200  162.5267 C.3     1  UNL1        0.1577
      6 O         137.6346  140.3531  163.1144 O.3     1  UNL1       -0.3523
      7 C         138.4503  138.8325  165.0567 C.3     1  UNL1        0.1601
      8 O         137.9489  138.5339  166.4384 O.3     1  UNL1       -0.3800
      9 H         137.5305  139.3268  166.8089 H       1  UNL1        0.2105
     10 C         139.1418  137.7642  164.2626 C.3     1  UNL1        0.1421
     11 C         143.1619  138.6896  166.0604 C.ar    1  UNL1        0.2263
     12 C         144.3170  139.0447  165.1718 C.ar    1  UNL1        0.0578
     13 C         144.1321  139.0913  163.6840 C.ar    1  UNL1        0.0078
     14 C         142.7921  138.7828  163.0847 C.ar    1  UNL1        0.0346
     15 C         142.6072  138.8294  161.5969 C.ar    1  UNL1        0.0079
     16 C         141.2672  138.5210  160.9976 C.ar    1  UNL1        0.0609
     17 C         140.1120  138.1659  161.8862 C.ar    1  UNL1        0.2621
     18 O         138.7720  137.8574  161.2869 O.2     1  UNL1       -0.2669
     19 N         140.2969  138.1193  163.3740 N.ar    1  UNL1       -0.2780
     20 C         141.6370  138.4277  163.9733 C.ar    1  UNL1        0.1492
     21 N         141.8219  138.3811  165.4611 N.ar    1  UNL1       -0.1942
     22 C         142.5336  139.5401  168.4335 C.3     1  UNL1        0.2542
     23 O         143.3468  138.6430  167.5482 O.3     1  UNL1       -0.4561
     24 N         137.6903  144.3002  162.7058 N.3     1  UNL1       -0.2915
     25 H         137.0323  144.7919  163.3105 H       1  UNL1        0.1236
     26 C         138.8702  145.2079  162.5212 C.3     1  UNL1        0.1152
     27 C         140.0941  144.7118  161.8099 C.ar    1  UNL1        0.0765
     28 C         140.2066  144.8564  160.3212 C.ar    1  UNL1        0.0193
     29 C         141.4305  144.3603  159.6098 C.ar    1  UNL1        0.0411
     30 C         142.5418  143.7195  160.3872 C.ar    1  UNL1        0.1708
     31 C         142.4292  143.5749  161.8760 C.ar    1  UNL1        0.1682
     32 N         141.2054  144.0710  162.5873 N.ar    1  UNL1       -0.2304
     33 N         143.5406  142.9341  162.6535 N.am    1  UNL1       -0.2639
     34 C         144.7645  142.4380  161.9421 C.2     1  UNL1        0.2718
     35 O         145.8758  141.7973  162.7195 O.2     1  UNL1       -0.2707
     36 C         144.8770  142.5826  160.4533 C.3     1  UNL1        0.2898
     37 O         143.7657  143.2234  159.6759 O.3     1  UNL1       -0.4628
     38 H         143.4667  142.8392  163.6306 H       1  UNL1        0.1565
@<TRIPOS>BOND
     1    22    23    1
     2    23    11    1
     3    11    12   ar
     4    12    13   ar
     5    13    14   ar
     6    14    15   ar
     7    15    16   ar
     8    16    17   ar
     9    17    18    2
    10    17    19   ar
    11    19    10    1
    12    10     7    1
    13     7     8    1
    14     7     1    1
    15     1     2    1
    16     2     3    1
    17     3     4    1
    18     4    24    1
    19    24    26    1
    20    26    27    1
    21    27    28   ar
    22    28    29   ar
    23    29    30   ar
    24    30    31   ar
    25    31    32   ar
    26    31    33    1
    27    33    34   am
    28    34    35    2
    29    34    36    1
    30    36    37    1
    31     4     5    1
    32     5     6    1
    33    19    20   ar
    34    20    21   ar
    35    21    11   ar
    36    20    14   ar
    37     6     1    1
    38    32    27   ar
    39    37    30    1
    40     8     9    1
    41    24    25    1
    42    33    38    1
@<TRIPOS>MOLECULE
*****
 38 42 0 0 0
SMALL
GASTEIGER

@<TRIPOS>ATOM
      1 C         143.1534  140.4420  160.5071 C.3     1  UNL1        0.1439
      2 C         143.9920  139.3443  161.0919 C.3     1  UNL1        0.0336
      3 C         143.3366  138.1977  161.8031 C.3     1  UNL1        0.0209
      4 C         141.8428  138.1488  161.9294 C.3     1  UNL1        0.0844
      5 C         141.0043  139.2464  161.3446 C.3     1  UNL1        0.1577
      6 O         141.6596  140.3930  160.6334 O.3     1  UNL1       -0.3523
      7 C         143.8088  141.5886  159.7959 C.3     1  UNL1        0.1601
      8 O         143.7202  141.6940  158.3022 O.3     1  UNL1       -0.3800
      9 H         143.2086  140.9466  157.9551 H       1  UNL1        0.2105
     10 C         144.5528  142.6299  160.5784 C.3     1  UNL1        0.1421
     11 C         140.8656  145.1381  161.1808 C.ar    1  UNL1        0.2263
     12 C         140.4196  145.4948  162.5678 C.ar    1  UNL1        0.0578
     13 C         141.2026  145.0155  163.7540 C.ar    1  UNL1        0.0078
     14 C         142.4317  144.1795  163.5532 C.ar    1  UNL1        0.0346
     15 C         143.2148  143.7001  164.7394 C.ar    1  UNL1        0.0079
     16 C         144.4438  142.8641  164.5386 C.ar    1  UNL1        0.0609
     17 C         144.8899  142.5073  163.1516 C.ar    1  UNL1        0.2621
     18 O         146.1189  141.6712  162.9508 O.2     1  UNL1       -0.2669
     19 N         144.1068  142.9866  161.9654 N.ar    1  UNL1       -0.2780
     20 C         142.8777  143.8227  162.1662 C.ar    1  UNL1        0.1492
     21 N         142.0946  144.3020  160.9800 N.ar    1  UNL1       -0.1942
     22 C         140.6398  145.4529  158.6118 C.3     1  UNL1        0.2542
     23 O         140.0825  145.6174  159.9947 O.3     1  UNL1       -0.4561
     24 N         141.1874  137.0021  162.6406 N.3     1  UNL1       -0.2915
     25 H         141.6201  136.1494  162.2856 H       1  UNL1        0.1236
     26 C         141.2363  136.9216  164.1376 C.3     1  UNL1        0.1152
     27 C         140.9442  138.1388  164.9641 C.ar    1  UNL1        0.0765
     28 C         139.5352  138.6362  165.0948 C.ar    1  UNL1        0.0193
     29 C         139.2431  139.8534  165.9213 C.ar    1  UNL1        0.0411
     30 C         140.3601  140.5732  166.6171 C.ar    1  UNL1        0.1708
     31 C         141.7692  140.0757  166.4864 C.ar    1  UNL1        0.1682
     32 N         142.0613  138.8586  165.6600 N.ar    1  UNL1       -0.2304
     33 N         142.8862  140.7955  167.1823 N.am    1  UNL1       -0.2639
     34 C         142.5941  142.0128  168.0088 C.2     1  UNL1        0.2718
     35 O         143.7112  142.7325  168.7046 O.2     1  UNL1       -0.2707
     36 C         141.1851  142.5102  168.1395 C.3     1  UNL1        0.2898
     37 O         140.0681  141.7904  167.4436 O.3     1  UNL1       -0.4628
     38 H         143.8111  140.4690  167.0965 H       1  UNL1        0.1565
@<TRIPOS>BOND
     1    22    23    1
     2    23    11    1
     3    11    12   ar
     4    12    13   ar
     5    13    14   ar
     6    14    15   ar
     7    15    16   ar
     8    16    17   ar
     9    17    18    2
    10    17    19   ar
    11    19    10    1
    12    10     7    1
    13     7     8    1
    14     7     1    1
    15     1     2    1
    16     2     3    1
    17     3     4    1
    18     4    24    1
    19    24    26    1
    20    26    27    1
    21    27    28   ar
    22    28    29   ar
    23    29    30   ar
    24    30    31   ar
    25    31    32   ar
    26    31    33    1
    27    33    34   am
    28    34    35    2
    29    34    36    1
    30    36    37    1
    31     4     5    1
    32     5     6    1
    33    19    20   ar
    34    20    21   ar
    35    21    11   ar
    36    20    14   ar
    37     6     1    1
    38    32    27   ar
    39    37    30    1
    40     8     9    1
    41    24    25    1
    42    33    38    1
@<TRIPOS>MOLECULE
*****
 38 42 0 0 0
SMALL
GASTEIGER

@<TRIPOS>ATOM
      1 C         138.4253  140.0626  164.1454 C.3     1  UNL1        0.1439
      2 C         138.5689  141.2284  165.0784 C.3     1  UNL1        0.0336
      3 C         138.2958  142.6194  164.5882 C.3     1  UNL1        0.0209
      4 C         137.8792  142.8447  163.1650 C.3     1  UNL1        0.0844
      5 C         137.7356  141.6790  162.2320 C.3     1  UNL1        0.1577
      6 O         138.0087  140.2880  162.7222 O.3     1  UNL1       -0.3523
      7 C         138.6984  138.6715  164.6357 C.3     1  UNL1        0.1601
      8 O         138.2417  138.2548  166.0024 O.3     1  UNL1       -0.3800
      9 H         137.7902  138.9976  166.4329 H       1  UNL1        0.2105
     10 C         139.4282  137.6972  163.7593 C.3     1  UNL1        0.1421
     11 C         143.3001  138.6856  165.8286 C.ar    1  UNL1        0.2263
     12 C         144.4843  139.1388  165.0272 C.ar    1  UNL1        0.0578
     13 C         144.3779  139.2625  163.5361 C.ar    1  UNL1        0.0078
     14 C         143.0873  138.9331  162.8464 C.ar    1  UNL1        0.0346
     15 C         142.9810  139.0568  161.3553 C.ar    1  UNL1        0.0079
     16 C         141.6904  138.7274  160.6655 C.ar    1  UNL1        0.0609
     17 C         140.5061  138.2741  161.4669 C.ar    1  UNL1        0.2621
     18 O         139.2155  137.9447  160.7771 O.2     1  UNL1       -0.2669
     19 N         140.6124  138.1504  162.9580 N.ar    1  UNL1       -0.2780
     20 C         141.9031  138.4799  163.6477 C.ar    1  UNL1        0.1492
     21 N         142.0095  138.3561  165.1388 N.ar    1  UNL1       -0.1942
     22 C         142.6227  139.4833  168.2065 C.3     1  UNL1        0.2542
     23 O         143.4065  138.5618  167.3197 O.3     1  UNL1       -0.4561
     24 N         137.6061  144.2358  162.6747 N.3     1  UNL1       -0.2915
     25 H         136.9095  144.6378  163.3021 H       1  UNL1        0.1236
     26 C         138.7253  145.2297  162.5766 C.3     1  UNL1        0.1152
     27 C         140.1447  144.7539  162.4828 C.ar    1  UNL1        0.0765
     28 C         141.1035  145.0293  163.6030 C.ar    1  UNL1        0.0193
     29 C         142.5230  144.5535  163.5092 C.ar    1  UNL1        0.0411
     30 C         142.9837  143.8024  162.2952 C.ar    1  UNL1        0.1708
     31 C         142.0248  143.5271  161.1750 C.ar    1  UNL1        0.1682
     32 N         140.6053  144.0029  161.2688 N.ar    1  UNL1       -0.2304
     33 N         142.4854  142.7760  159.9611 N.am    1  UNL1       -0.2639
     34 C         143.9049  142.3003  159.8673 C.2     1  UNL1        0.2718
     35 O         144.3655  141.5492  158.6533 O.2     1  UNL1       -0.2707
     36 C         144.8637  142.5756  160.9875 C.3     1  UNL1        0.2898
     37 O         144.4031  143.3267  162.2014 O.3     1  UNL1       -0.4628
     38 H         141.8561  142.5953  159.2258 H       1  UNL1        0.1565
@<TRIPOS>BOND
     1    22    23    1
     2    23    11    1
     3    11    12   ar
     4    12    13   ar
     5    13    14   ar
     6    14    15   ar
     7    15    16   ar
     8    16    17   ar
     9    17    18    2
    10    17    19   ar
    11    19    10    1
    12    10     7    1
    13     7     8    1
    14     7     1    1
    15     1     2    1
    16     2     3    1
    17     3     4    1
    18     4    24    1
    19    24    26    1
    20    26    27    1
    21    27    28   ar
    22    28    29   ar
    23    29    30   ar
    24    30    31   ar
    25    31    32   ar
    26    31    33    1
    27    33    34   am
    28    34    35    2
    29    34    36    1
    30    36    37    1
    31     4     5    1
    32     5     6    1
    33    19    20   ar
    34    20    21   ar
    35    21    11   ar
    36    20    14   ar
    37     6     1    1
    38    32    27   ar
    39    37    30    1
    40     8     9    1
    41    24    25    1
    42    33    38    1
@<TRIPOS>MOLECULE
*****
 38 42 0 0 0
SMALL
GASTEIGER

@<TRIPOS>ATOM
      1 C         142.1057  138.3918  164.0631 C.3     1  UNL1        0.1439
      2 C         143.1855  138.7657  165.0347 C.3     1  UNL1        0.0336
      3 C         144.3301  139.6268  164.5892 C.3     1  UNL1        0.0209
      4 C         144.3947  140.1140  163.1720 C.3     1  UNL1        0.0844
      5 C         143.3149  139.7400  162.2004 C.3     1  UNL1        0.1577
      6 O         142.1704  138.8790  162.6459 O.3     1  UNL1       -0.3523
      7 C         140.9611  137.5307  164.5087 C.3     1  UNL1        0.1601
      8 O         141.0286  136.0428  164.3315 O.3     1  UNL1       -0.3800
      9 H         141.8727  135.8045  163.9172 H       1  UNL1        0.2105
     10 C         139.7490  138.1576  165.1315 C.3     1  UNL1        0.1421
     11 C         141.0778  141.0692  168.2948 C.ar    1  UNL1        0.2263
     12 C         140.8186  142.5363  168.1202 C.ar    1  UNL1        0.0578
     13 C         140.1166  143.0328  166.8911 C.ar    1  UNL1        0.0078
     14 C         139.6737  142.0623  165.8367 C.ar    1  UNL1        0.0346
     15 C         138.9717  142.5588  164.6076 C.ar    1  UNL1        0.0079
     16 C         138.5288  141.5883  163.5532 C.ar    1  UNL1        0.0609
     17 C         138.7879  140.1212  163.7278 C.ar    1  UNL1        0.2621
     18 O         138.3450  139.1506  162.6734 O.2     1  UNL1       -0.2669
     19 N         139.4899  139.6246  164.9569 N.ar    1  UNL1       -0.2780
     20 C         139.9328  140.5953  166.0113 C.ar    1  UNL1        0.1492
     21 N         140.6348  140.0987  167.2404 N.ar    1  UNL1       -0.1942
     22 C         142.4540  139.2328  169.5128 C.3     1  UNL1        0.2542
     23 O         141.7798  140.5727  169.5239 O.3     1  UNL1       -0.4561
     24 N         145.5393  140.9751  162.7264 N.3     1  UNL1       -0.2915
     25 H         145.5924  140.8922  161.7112 H       1  UNL1        0.1236
     26 C         145.5417  142.4416  163.0418 C.3     1  UNL1        0.1152
     27 C         144.2568  143.2152  163.0213 C.ar    1  UNL1        0.0765
     28 C         143.5756  143.5721  164.3091 C.ar    1  UNL1        0.0193
     29 C         142.2907  144.3458  164.2886 C.ar    1  UNL1        0.0411
     30 C         141.6869  144.7626  162.9803 C.ar    1  UNL1        0.1708
     31 C         142.3682  144.4056  161.6924 C.ar    1  UNL1        0.1682
     32 N         143.6531  143.6320  161.7129 N.ar    1  UNL1       -0.2304
     33 N         141.7645  144.8224  160.3840 N.am    1  UNL1       -0.2639
     34 C         140.4795  145.5961  160.3635 C.2     1  UNL1        0.2718
     35 O         139.8758  146.0129  159.0552 O.2     1  UNL1       -0.2707
     36 C         139.7983  145.9530  161.6514 C.3     1  UNL1        0.2898
     37 O         140.4021  145.5362  162.9598 O.3     1  UNL1       -0.4628
     38 H         142.2116  144.5882  159.5387 H       1  UNL1        0.1565
@<TRIPOS>BOND
     1    22    23    1
     2    23    11    1
     3    11    12   ar
     4    12    13   ar
     5    13    14   ar
     6    14    15   ar
     7    15    16   ar
     8    16    17   ar
     9    17    18    2
    10    17    19   ar
    11    19    10    1
    12    10     7    1
    13     7     8    1
    14     7     1    1
    15     1     2    1
    16     2     3    1
    17     3     4    1
    18     4    24    1
    19    24    26    1
    20    26    27    1
    21    27    28   ar
    22    28    29   ar
    23    29    30   ar
    24    30    31   ar
    25    31    32   ar
    26    31    33    1
    27    33    34   am
    28    34    35    2
    29    34    36    1
    30    36    37    1
    31     4     5    1
    32     5     6    1
    33    19    20   ar
    34    20    21   ar
    35    21    11   ar
    36    20    14   ar
    37     6     1    1
    38    32    27   ar
    39    37    30    1
    40     8     9    1
    41    24    25    1
    42    33    38    1
