@<TRIPOS>MOLECULE
*****
 31 33 0 0 0
SMALL
GASTEIGER

@<TRIPOS>ATOM
      1 C         143.1681  138.9039  161.7549 C.ar    1  UNL1       -0.0000
      2 C         142.0586  138.1407  162.4157 C.ar    1  UNL1       -0.0003
      3 C         142.0257  138.0078  163.9094 C.ar    1  UNL1       -0.0042
      4 C         143.1023  138.6380  164.7424 C.ar    1  UNL1       -0.0194
      5 C         144.2118  139.4012  164.0816 C.ar    1  UNL1       -0.0042
      6 C         144.2447  139.5341  162.5878 C.ar    1  UNL1       -0.0003
      7 C         142.7238  138.0544  157.9038 C.ar    1  UNL1        0.0348
      8 C         142.6909  137.9215  159.3975 C.ar    1  UNL1        0.0068
      9 C         143.2010  139.0368  160.2611 C.ar    1  UNL1        0.0005
     10 C         143.7439  140.2851  159.6310 C.ar    1  UNL1        0.0007
     11 C         143.7768  140.4179  158.1373 C.ar    1  UNL1        0.0108
     12 C         143.2667  139.3026  157.2737 C.ar    1  UNL1        0.0741
     13 C         143.0117  135.6771  156.8959 C.3     1  UNL1        0.0742
     14 S         142.2137  136.9390  157.0402 S.3     1  UNL1       -0.1121
     15 C         143.2996  139.4355  155.7799 C.1     1  UNL1        0.1009
     16 N         143.3324  139.5685  154.2862 N.1     1  UNL1       -0.1908
     17 C         143.0694  138.5050  166.2361 C.3     1  UNL1        0.0616
     18 C         142.5157  139.6176  167.0761 C.3     1  UNL1        0.1684
     19 N         141.7645  140.7433  166.4292 N.am    1  UNL1       -0.2925
     20 C         140.2682  140.6912  166.3370 C.2     1  UNL1        0.2374
     21 O         139.5232  139.5134  166.8916 O.2     1  UNL1       -0.2736
     22 H         142.2535  141.5164  166.0652 H       1  UNL1        0.1504
     23 C         139.5170  141.8170  165.6901 C.3     1  UNL1        0.1315
     24 C         139.8992  143.2381  165.9803 C.3     1  UNL1        0.0251
     25 C         139.1480  144.3639  165.3334 C.3     1  UNL1        0.0033
     26 C         138.0146  144.0684  164.3963 C.3     1  UNL1        0.0171
     27 C         137.6325  142.6472  164.1061 C.3     1  UNL1        0.0689
     28 N         138.3837  141.5215  164.7530 N.3     1  UNL1       -0.2913
     29 H         138.7662  140.9511  163.9989 H       1  UNL1        0.1236
     30 C         142.7132  139.6045  168.5629 C.1     1  UNL1        0.0927
     31 N         142.9108  139.5914  170.0498 N.1     1  UNL1       -0.1942
@<TRIPOS>BOND
     1    13    14    1
     2    14     7    1
     3     7     8   ar
     4     8     9   ar
     5     9     1    1
     6     1     2   ar
     7     2     3   ar
     8     3     4   ar
     9     4    17    1
    10    18    17    1
    11    18    30    1
    12    30    31    3
    13    18    19    1
    14    19    20   am
    15    20    21    2
    16    23    20    1
    17    23    24    1
    18    24    25    1
    19    25    26    1
    20    26    27    1
    21    27    28    1
    22     4     5   ar
    23     5     6   ar
    24     9    10   ar
    25    10    11   ar
    26    11    12   ar
    27    12    15    1
    28    15    16    3
    29    12     7   ar
    30     6     1   ar
    31    28    23    1
    32    19    22    1
    33    28    29    1
@<TRIPOS>MOLECULE
*****
 31 33 0 0 0
SMALL
GASTEIGER

@<TRIPOS>ATOM
      1 C         141.9060  138.3212  161.7612 C.ar    1  UNL1       -0.0000
      2 C         141.1001  137.5871  162.7916 C.ar    1  UNL1       -0.0003
      3 C         141.5140  137.6232  164.2329 C.ar    1  UNL1       -0.0042
      4 C         142.7338  138.3935  164.6438 C.ar    1  UNL1       -0.0194
      5 C         143.5397  139.1276  163.6134 C.ar    1  UNL1       -0.0042
      6 C         143.1257  139.0915  162.1721 C.ar    1  UNL1       -0.0003
      7 C         142.0553  137.8104  157.8284 C.ar    1  UNL1        0.0348
      8 C         142.4692  137.8466  159.2697 C.ar    1  UNL1        0.0068
      9 C         141.4920  138.2850  160.3198 C.ar    1  UNL1        0.0005
     10 C         140.1009  138.6872  159.9287 C.ar    1  UNL1        0.0007
     11 C         139.6870  138.6511  158.4874 C.ar    1  UNL1        0.0108
     12 C         140.6642  138.2127  157.4373 C.ar    1  UNL1        0.0741
     13 C         143.3092  135.9121  156.5739 C.3     1  UNL1        0.0742
     14 S         143.0326  137.3721  156.7782 S.3     1  UNL1       -0.1121
     15 C         140.2503  138.1765  155.9959 C.1     1  UNL1        0.1009
     16 N         139.8364  138.1403  154.5546 N.1     1  UNL1       -0.1908
     17 C         143.1477  138.4297  166.0851 C.3     1  UNL1        0.0616
     18 C         142.5627  139.4574  167.0079 C.3     1  UNL1        0.1684
     19 N         141.8155  140.6306  166.4466 N.am    1  UNL1       -0.2925
     20 C         140.3200  140.5855  166.3387 C.2     1  UNL1        0.2374
     21 O         139.5718  139.3670  166.7921 O.2     1  UNL1       -0.2736
     22 H         142.3065  141.4304  166.1491 H       1  UNL1        0.1504
     23 C         139.5728  141.7588  165.7774 C.3     1  UNL1        0.1315
     24 C         140.0008  143.1547  166.1212 C.3     1  UNL1        0.0251
     25 C         139.2536  144.3280  165.5599 C.3     1  UNL1        0.0033
     26 C         138.0784  144.1054  164.6548 C.3     1  UNL1        0.0171
     27 C         137.6504  142.7094  164.3110 C.3     1  UNL1        0.0689
     28 N         138.3976  141.5362  164.8723 N.3     1  UNL1       -0.2913
     29 H         138.7369  140.9953  164.0768 H       1  UNL1        0.1236
     30 C         142.7249  139.3119  168.4919 C.1     1  UNL1        0.0927
     31 N         142.8871  139.1663  169.9761 N.1     1  UNL1       -0.1942
@<TRIPOS>BOND
     1    13    14    1
     2    14     7    1
     3     7     8   ar
     4     8     9   ar
     5     9     1    1
     6     1     2   ar
     7     2     3   ar
     8     3     4   ar
     9     4    17    1
    10    18    17    1
    11    18    30    1
    12    30    31    3
    13    18    19    1
    14    19    20   am
    15    20    21    2
    16    23    20    1
    17    23    24    1
    18    24    25    1
    19    25    26    1
    20    26    27    1
    21    27    28    1
    22     4     5   ar
    23     5     6   ar
    24     9    10   ar
    25    10    11   ar
    26    11    12   ar
    27    12    15    1
    28    15    16    3
    29    12     7   ar
    30     6     1   ar
    31    28    23    1
    32    19    22    1
    33    28    29    1
@<TRIPOS>MOLECULE
*****
 31 33 0 0 0
SMALL
GASTEIGER

@<TRIPOS>ATOM
      1 C         143.2026  138.8489  162.2111 C.ar    1  UNL1       -0.0000
      2 C         144.2853  139.5543  162.9728 C.ar    1  UNL1       -0.0003
      3 C         144.2928  139.5183  164.4723 C.ar    1  UNL1       -0.0042
      4 C         143.2177  138.7770  165.2102 C.ar    1  UNL1       -0.0194
      5 C         142.1350  138.0716  164.4485 C.ar    1  UNL1       -0.0042
      6 C         142.1275  138.1076  162.9489 C.ar    1  UNL1       -0.0003
      7 C         143.7367  140.1142  158.4877 C.ar    1  UNL1        0.0348
      8 C         143.7442  140.0781  159.9872 C.ar    1  UNL1        0.0068
      9 C         143.1951  138.8849  160.7115 C.ar    1  UNL1        0.0005
     10 C         142.6385  137.7277  159.9363 C.ar    1  UNL1        0.0007
     11 C         142.6310  137.7637  158.4368 C.ar    1  UNL1        0.0108
     12 C         143.1801  138.9569  157.7125 C.ar    1  UNL1        0.0741
     13 C         144.6888  142.5311  158.5316 C.3     1  UNL1        0.0742
     14 S         144.2859  141.3074  157.7634 S.3     1  UNL1       -0.1121
     15 C         143.1726  138.9929  156.2129 C.1     1  UNL1        0.1009
     16 N         143.1651  139.0289  154.7134 N.1     1  UNL1       -0.1908
     17 C         143.2252  138.7410  166.7097 C.3     1  UNL1        0.0616
     18 C         142.5477  139.8287  167.4895 C.3     1  UNL1        0.1684
     19 N         141.7918  140.9070  166.7713 N.am    1  UNL1       -0.2925
     20 C         140.3170  140.7618  166.5390 C.2     1  UNL1        0.2374
     21 O         139.5982  139.5382  167.0248 O.2     1  UNL1       -0.2736
     22 H         142.2636  141.7101  166.4524 H       1  UNL1        0.1504
     23 C         139.5612  141.8402  165.8208 C.3     1  UNL1        0.1315
     24 C         139.9421  143.2782  166.0127 C.3     1  UNL1        0.0251
     25 C         139.1862  144.3566  165.2945 C.3     1  UNL1        0.0033
     26 C         138.0494  143.9969  164.3844 C.3     1  UNL1        0.0171
     27 C         137.6685  142.5588  164.1925 C.3     1  UNL1        0.0689
     28 N         138.4243  141.4804  164.9107 N.3     1  UNL1       -0.2913
     29 H         138.8047  140.8609  164.1952 H       1  UNL1        0.1236
     30 C         142.6261  139.8380  168.9874 C.1     1  UNL1        0.0927
     31 N         142.7044  139.8474  170.4853 N.1     1  UNL1       -0.1942
@<TRIPOS>BOND
     1    13    14    1
     2    14     7    1
     3     7     8   ar
     4     8     9   ar
     5     9     1    1
     6     1     2   ar
     7     2     3   ar
     8     3     4   ar
     9     4    17    1
    10    18    17    1
    11    18    30    1
    12    30    31    3
    13    18    19    1
    14    19    20   am
    15    20    21    2
    16    23    20    1
    17    23    24    1
    18    24    25    1
    19    25    26    1
    20    26    27    1
    21    27    28    1
    22     4     5   ar
    23     5     6   ar
    24     9    10   ar
    25    10    11   ar
    26    11    12   ar
    27    12    15    1
    28    15    16    3
    29    12     7   ar
    30     6     1   ar
    31    28    23    1
    32    19    22    1
    33    28    29    1
@<TRIPOS>MOLECULE
*****
 31 33 0 0 0
SMALL
GASTEIGER

@<TRIPOS>ATOM
      1 C         142.9345  139.6840  164.3633 C.ar    1  UNL1       -0.0000
      2 C         141.8656  138.6778  164.0555 C.ar    1  UNL1       -0.0003
      3 C         141.8730  137.9536  162.7420 C.ar    1  UNL1       -0.0042
      4 C         142.9495  138.2357  161.7361 C.ar    1  UNL1       -0.0194
      5 C         144.0185  139.2420  162.0439 C.ar    1  UNL1       -0.0042
      6 C         144.0110  139.9661  163.3576 C.ar    1  UNL1       -0.0003
      7 C         142.5498  140.4019  168.2475 C.ar    1  UNL1        0.0348
      8 C         142.5573  139.6778  166.9339 C.ar    1  UNL1        0.0068
      9 C         142.9270  140.4082  165.6770 C.ar    1  UNL1        0.0005
     10 C         143.2892  141.8627  165.7337 C.ar    1  UNL1        0.0007
     11 C         143.2817  142.5868  167.0473 C.ar    1  UNL1        0.0108
     12 C         142.9120  141.8564  168.3042 C.ar    1  UNL1        0.0741
     13 C         140.8030  139.8195  170.0804 C.3     1  UNL1        0.0742
     14 S         142.1801  139.6715  169.5044 S.3     1  UNL1       -0.1121
     15 C         142.9044  142.5805  169.6178 C.1     1  UNL1        0.1009
     16 N         142.8970  143.3047  170.9314 N.1     1  UNL1       -0.1908
     17 C         142.9570  137.5116  160.4225 C.3     1  UNL1        0.0616
     18 C         142.5900  138.2389  159.1631 C.3     1  UNL1        0.1684
     19 N         143.6613  138.8574  158.3148 N.am    1  UNL1       -0.2925
     20 C         143.8699  140.3427  158.3351 C.2     1  UNL1        0.2374
     21 O         143.0072  141.2094  159.2036 O.2     1  UNL1       -0.2736
     22 H         144.2276  138.2885  157.7447 H       1  UNL1        0.1504
     23 C         144.9414  140.9612  157.4868 C.3     1  UNL1        0.1315
     24 C         145.5423  142.2781  157.8798 C.3     1  UNL1        0.0251
     25 C         146.6138  142.8967  157.0315 C.3     1  UNL1        0.0033
     26 C         147.0841  142.1982  155.7901 C.3     1  UNL1        0.0171
     27 C         146.4831  140.8812  155.3971 C.3     1  UNL1        0.0689
     28 N         145.4117  140.2628  156.2454 N.3     1  UNL1       -0.2913
     29 H         145.7572  139.3478  156.5353 H       1  UNL1        0.1236
     30 C         141.1516  138.3476  158.7518 C.1     1  UNL1        0.0927
     31 N         139.7131  138.4564  158.3405 N.1     1  UNL1       -0.1942
@<TRIPOS>BOND
     1    13    14    1
     2    14     7    1
     3     7     8   ar
     4     8     9   ar
     5     9     1    1
     6     1     2   ar
     7     2     3   ar
     8     3     4   ar
     9     4    17    1
    10    18    17    1
    11    18    30    1
    12    30    31    3
    13    18    19    1
    14    19    20   am
    15    20    21    2
    16    23    20    1
    17    23    24    1
    18    24    25    1
    19    25    26    1
    20    26    27    1
    21    27    28    1
    22     4     5   ar
    23     5     6   ar
    24     9    10   ar
    25    10    11   ar
    26    11    12   ar
    27    12    15    1
    28    15    16    3
    29    12     7   ar
    30     6     1   ar
    31    28    23    1
    32    19    22    1
    33    28    29    1
@<TRIPOS>MOLECULE
*****
 31 33 0 0 0
SMALL
GASTEIGER

@<TRIPOS>ATOM
      1 C         141.5067  138.3532  160.5354 C.ar    1  UNL1       -0.0000
      2 C         142.2779  137.9593  161.7602 C.ar    1  UNL1       -0.0003
      3 C         141.5508  137.6221  163.0281 C.ar    1  UNL1       -0.0042
      4 C         140.0525  137.6788  163.0713 C.ar    1  UNL1       -0.0194
      5 C         139.2813  138.0727  161.8465 C.ar    1  UNL1       -0.0042
      6 C         140.0084  138.4099  160.5785 C.ar    1  UNL1       -0.0003
      7 C         142.9556  138.0613  156.8523 C.ar    1  UNL1        0.0348
      8 C         142.2285  137.7241  158.1202 C.ar    1  UNL1        0.0068
      9 C         142.2339  138.6904  159.2675 C.ar    1  UNL1        0.0005
     10 C         142.9663  139.9938  159.1469 C.ar    1  UNL1        0.0007
     11 C         143.6934  140.3310  157.8790 C.ar    1  UNL1        0.0108
     12 C         143.6881  139.3647  156.7317 C.ar    1  UNL1        0.0741
     13 C         143.9742  136.0007  155.6414 C.3     1  UNL1        0.0742
     14 S         142.9503  137.0950  155.7050 S.3     1  UNL1       -0.1121
     15 C         144.4152  139.7019  155.4637 C.1     1  UNL1        0.1009
     16 N         145.1423  140.0391  154.1959 N.1     1  UNL1       -0.1908
     17 C         139.3254  137.3416  164.3392 C.3     1  UNL1        0.0616
     18 C         138.9517  138.4298  165.3016 C.3     1  UNL1        0.1684
     19 N         139.5651  139.7921  165.1683 N.am    1  UNL1       -0.2925
     20 C         138.8697  140.8526  164.3671 C.2     1  UNL1        0.2374
     21 O         137.5610  140.5507  163.6992 O.2     1  UNL1       -0.2736
     22 H         140.4240  139.9902  165.6067 H       1  UNL1        0.1504
     23 C         139.4831  142.2150  164.2339 C.3     1  UNL1        0.1315
     24 C         138.7541  143.4196  164.7510 C.3     1  UNL1        0.0251
     25 C         139.3676  144.7819  164.6178 C.3     1  UNL1        0.0033
     26 C         140.7100  144.9397  163.9674 C.3     1  UNL1        0.0171
     27 C         141.4390  143.7350  163.4503 C.3     1  UNL1        0.0689
     28 N         140.8256  142.3727  163.5835 N.3     1  UNL1       -0.2913
     29 H         141.4815  141.8057  164.1208 H       1  UNL1        0.1236
     30 C         137.9647  138.1556  166.3972 C.1     1  UNL1        0.0927
     31 N         136.9776  137.8814  167.4930 N.1     1  UNL1       -0.1942
@<TRIPOS>BOND
     1    13    14    1
     2    14     7    1
     3     7     8   ar
     4     8     9   ar
     5     9     1    1
     6     1     2   ar
     7     2     3   ar
     8     3     4   ar
     9     4    17    1
    10    18    17    1
    11    18    30    1
    12    30    31    3
    13    18    19    1
    14    19    20   am
    15    20    21    2
    16    23    20    1
    17    23    24    1
    18    24    25    1
    19    25    26    1
    20    26    27    1
    21    27    28    1
    22     4     5   ar
    23     5     6   ar
    24     9    10   ar
    25    10    11   ar
    26    11    12   ar
    27    12    15    1
    28    15    16    3
    29    12     7   ar
    30     6     1   ar
    31    28    23    1
    32    19    22    1
    33    28    29    1
@<TRIPOS>MOLECULE
*****
 31 33 0 0 0
SMALL
GASTEIGER

@<TRIPOS>ATOM
      1 C         140.0964  143.1821  164.8149 C.ar    1  UNL1       -0.0000
      2 C         141.4157  143.7103  164.3349 C.ar    1  UNL1       -0.0003
      3 C         141.4935  144.4757  163.0473 C.ar    1  UNL1       -0.0042
      4 C         140.2519  144.7131  162.2397 C.ar    1  UNL1       -0.0194
      5 C         138.9326  144.1849  162.7197 C.ar    1  UNL1       -0.0042
      6 C         138.8548  143.4194  164.0073 C.ar    1  UNL1       -0.0003
      7 C         140.4036  142.2849  168.6686 C.ar    1  UNL1        0.0348
      8 C         140.4813  143.0504  167.3810 C.ar    1  UNL1        0.0068
      9 C         140.0186  142.4166  166.1026 C.ar    1  UNL1        0.0005
     10 C         139.4782  141.0174  166.1119 C.ar    1  UNL1        0.0007
     11 C         139.4005  140.2520  167.3995 C.ar    1  UNL1        0.0108
     12 C         139.8632  140.8857  168.6779 C.ar    1  UNL1        0.0741
     13 C         142.3333  143.0608  170.2256 C.3     1  UNL1        0.0742
     14 S         140.8663  142.9187  169.9470 S.3     1  UNL1       -0.1121
     15 C         139.7854  140.1202  169.9655 C.1     1  UNL1        0.1009
     16 N         139.7077  139.3548  171.2531 N.1     1  UNL1       -0.1908
     17 C         140.3297  145.4786  160.9521 C.3     1  UNL1        0.0616
     18 C         140.4719  144.7455  159.6511 C.3     1  UNL1        0.1684
     19 N         140.7114  143.2648  159.6469 N.am    1  UNL1       -0.2925
     20 C         142.1124  142.7314  159.6970 C.2     1  UNL1        0.2374
     21 O         143.2741  143.6788  159.7513 O.2     1  UNL1       -0.2736
     22 H         139.9489  142.6430  159.6113 H       1  UNL1        0.1504
     23 C         142.3518  141.2506  159.6928 C.3     1  UNL1        0.1315
     24 C         143.4959  140.6736  160.4725 C.3     1  UNL1        0.0251
     25 C         143.7353  139.1927  160.4683 C.3     1  UNL1        0.0033
     26 C         142.8305  138.2890  159.6843 C.3     1  UNL1        0.0171
     27 C         141.6863  138.8661  158.9045 C.3     1  UNL1        0.0689
     28 N         141.4470  140.3468  158.9088 N.3     1  UNL1       -0.2913
     29 H         140.5033  140.4916  159.2677 H       1  UNL1        0.1236
     30 C         140.3748  145.4932  158.3544 C.1     1  UNL1        0.0927
     31 N         140.2775  146.2409  157.0577 N.1     1  UNL1       -0.1942
@<TRIPOS>BOND
     1    13    14    1
     2    14     7    1
     3     7     8   ar
     4     8     9   ar
     5     9     1    1
     6     1     2   ar
     7     2     3   ar
     8     3     4   ar
     9     4    17    1
    10    18    17    1
    11    18    30    1
    12    30    31    3
    13    18    19    1
    14    19    20   am
    15    20    21    2
    16    23    20    1
    17    23    24    1
    18    24    25    1
    19    25    26    1
    20    26    27    1
    21    27    28    1
    22     4     5   ar
    23     5     6   ar
    24     9    10   ar
    25    10    11   ar
    26    11    12   ar
    27    12    15    1
    28    15    16    3
    29    12     7   ar
    30     6     1   ar
    31    28    23    1
    32    19    22    1
    33    28    29    1
@<TRIPOS>MOLECULE
*****
 31 33 0 0 0
SMALL
GASTEIGER

@<TRIPOS>ATOM
      1 C         143.0073  142.5216  164.5439 C.ar    1  UNL1       -0.0000
      2 C         143.5051  141.2070  164.0206 C.ar    1  UNL1       -0.0003
      3 C         144.1992  141.1428  162.6924 C.ar    1  UNL1       -0.0042
      4 C         144.3956  142.3933  161.8876 C.ar    1  UNL1       -0.0194
      5 C         143.8979  143.7079  162.4109 C.ar    1  UNL1       -0.0042
      6 C         143.2037  143.7721  163.7391 C.ar    1  UNL1       -0.0003
      7 C         142.3648  142.3003  168.4539 C.ar    1  UNL1        0.0348
      8 C         143.0589  142.2361  167.1258 C.ar    1  UNL1        0.0068
      9 C         142.3131  142.5858  165.8721 C.ar    1  UNL1        0.0005
     10 C         140.8733  142.9995  165.9467 C.ar    1  UNL1        0.0007
     11 C         140.1792  143.0637  167.2748 C.ar    1  UNL1        0.0108
     12 C         140.9250  142.7140  168.5285 C.ar    1  UNL1        0.0741
     13 C         144.4026  142.6414  170.0290 C.3     1  UNL1        0.0742
     14 S         143.1105  141.9506  169.7076 S.3     1  UNL1       -0.1121
     15 C         140.2308  142.7782  169.8567 C.1     1  UNL1        0.1009
     16 N         139.5366  142.8424  171.1848 N.1     1  UNL1       -0.1908
     17 C         145.0898  142.3291  160.5594 C.3     1  UNL1        0.0616
     18 C         144.3060  142.5132  159.2938 C.3     1  UNL1        0.1684
     19 N         144.9969  142.9709  158.0436 N.am    1  UNL1       -0.2925
     20 C         145.4319  141.9675  157.0169 C.2     1  UNL1        0.2374
     21 O         145.1759  140.5065  157.2405 O.2     1  UNL1       -0.2736
     22 H         145.1650  143.9297  157.8969 H       1  UNL1        0.1504
     23 C         146.1229  142.4252  155.7666 C.3     1  UNL1        0.1315
     24 C         147.5269  141.9816  155.4804 C.3     1  UNL1        0.0251
     25 C         148.2179  142.4393  154.2301 C.3     1  UNL1        0.0033
     26 C         147.5048  143.3405  153.2661 C.3     1  UNL1        0.0171
     27 C         146.1007  143.7841  153.5524 C.3     1  UNL1        0.0689
     28 N         145.4098  143.3264  154.8026 N.3     1  UNL1       -0.2913
     29 H         144.5656  142.8348  154.5094 H       1  UNL1        0.1236
     30 C         142.8312  142.2398  159.2785 C.1     1  UNL1        0.0927
     31 N         141.3564  141.9664  159.2631 N.1     1  UNL1       -0.1942
@<TRIPOS>BOND
     1    13    14    1
     2    14     7    1
     3     7     8   ar
     4     8     9   ar
     5     9     1    1
     6     1     2   ar
     7     2     3   ar
     8     3     4   ar
     9     4    17    1
    10    18    17    1
    11    18    30    1
    12    30    31    3
    13    18    19    1
    14    19    20   am
    15    20    21    2
    16    23    20    1
    17    23    24    1
    18    24    25    1
    19    25    26    1
    20    26    27    1
    21    27    28    1
    22     4     5   ar
    23     5     6   ar
    24     9    10   ar
    25    10    11   ar
    26    11    12   ar
    27    12    15    1
    28    15    16    3
    29    12     7   ar
    30     6     1   ar
    31    28    23    1
    32    19    22    1
    33    28    29    1
@<TRIPOS>MOLECULE
*****
 31 33 0 0 0
SMALL
GASTEIGER

@<TRIPOS>ATOM
      1 C         138.7573  139.3112  161.8656 C.ar    1  UNL1       -0.0000
      2 C         139.1771  138.0933  162.6340 C.ar    1  UNL1       -0.0003
      3 C         139.0353  138.0627  164.1269 C.ar    1  UNL1       -0.0042
      4 C         138.4736  139.2499  164.8515 C.ar    1  UNL1       -0.0194
      5 C         138.0538  140.4679  164.0831 C.ar    1  UNL1       -0.0042
      6 C         138.1956  140.4985  162.5901 C.ar    1  UNL1       -0.0003
      7 C         138.2488  140.3567  158.0711 C.ar    1  UNL1        0.0348
      8 C         138.1070  140.3261  159.5640 C.ar    1  UNL1        0.0068
      9 C         138.8991  139.3419  160.3726 C.ar    1  UNL1        0.0005
     10 C         139.8331  138.3883  159.6882 C.ar    1  UNL1        0.0007
     11 C         139.9749  138.4190  158.1953 C.ar    1  UNL1        0.0108
     12 C         139.1828  139.4032  157.3867 C.ar    1  UNL1        0.0741
     13 C         137.8923  142.7744  157.1890 C.3     1  UNL1        0.0742
     14 S         137.4566  141.3409  157.2625 S.3     1  UNL1       -0.1121
     15 C         139.3246  139.4338  155.8937 C.1     1  UNL1        0.1009
     16 N         139.4664  139.4645  154.4008 N.1     1  UNL1       -0.1908
     17 C         138.3318  139.2193  166.3445 C.3     1  UNL1        0.0616
     18 C         139.4534  139.7040  167.2145 C.3     1  UNL1        0.1684
     19 N         140.8146  139.9304  166.6266 N.am    1  UNL1       -0.2925
     20 C         141.1815  141.2790  166.0819 C.2     1  UNL1        0.2374
     21 O         140.1871  142.4012  166.1251 O.2     1  UNL1       -0.2736
     22 H         141.4673  139.1939  166.5982 H       1  UNL1        0.1504
     23 C         142.5428  141.5054  165.4939 C.3     1  UNL1        0.1315
     24 C         143.3145  140.3527  164.9232 C.3     1  UNL1        0.0251
     25 C         144.6758  140.5791  164.3353 C.3     1  UNL1        0.0033
     26 C         145.2654  141.9582  164.3181 C.3     1  UNL1        0.0171
     27 C         144.4937  143.1110  164.8888 C.3     1  UNL1        0.0689
     28 N         143.1324  142.8846  165.4767 N.3     1  UNL1       -0.2913
     29 H         142.4846  143.4753  164.9554 H       1  UNL1        0.1236
     30 C         139.2138  139.9623  168.6725 C.1     1  UNL1        0.0927
     31 N         138.9741  140.2207  170.1306 N.1     1  UNL1       -0.1942
@<TRIPOS>BOND
     1    13    14    1
     2    14     7    1
     3     7     8   ar
     4     8     9   ar
     5     9     1    1
     6     1     2   ar
     7     2     3   ar
     8     3     4   ar
     9     4    17    1
    10    18    17    1
    11    18    30    1
    12    30    31    3
    13    18    19    1
    14    19    20   am
    15    20    21    2
    16    23    20    1
    17    23    24    1
    18    24    25    1
    19    25    26    1
    20    26    27    1
    21    27    28    1
    22     4     5   ar
    23     5     6   ar
    24     9    10   ar
    25    10    11   ar
    26    11    12   ar
    27    12    15    1
    28    15    16    3
    29    12     7   ar
    30     6     1   ar
    31    28    23    1
    32    19    22    1
    33    28    29    1
@<TRIPOS>MOLECULE
*****
 31 33 0 0 0
SMALL
GASTEIGER

@<TRIPOS>ATOM
      1 C         138.7112  139.4578  161.4767 C.ar    1  UNL1       -0.0000
      2 C         138.2725  140.6625  162.2553 C.ar    1  UNL1       -0.0003
      3 C         138.1529  140.5876  163.7486 C.ar    1  UNL1       -0.0042
      4 C         138.4720  139.3080  164.4634 C.ar    1  UNL1       -0.0194
      5 C         138.9107  138.1033  163.6847 C.ar    1  UNL1       -0.0042
      6 C         139.0303  138.1782  162.1913 C.ar    1  UNL1       -0.0003
      7 C         139.8213  138.6304  157.7573 C.ar    1  UNL1        0.0348
      8 C         139.7016  138.5555  159.2507 C.ar    1  UNL1        0.0068
      9 C         138.8308  139.5328  159.9833 C.ar    1  UNL1        0.0005
     10 C         138.0796  140.5849  159.2225 C.ar    1  UNL1        0.0007
     11 C         138.1993  140.6598  157.7292 C.ar    1  UNL1        0.0108
     12 C         139.0701  139.6825  156.9966 C.ar    1  UNL1        0.0741
     13 C         142.1821  137.8259  157.0298 C.3     1  UNL1        0.0742
     14 S         140.6921  137.6532  157.0247 S.3     1  UNL1       -0.1121
     15 C         139.1897  139.7575  155.5032 C.1     1  UNL1        0.1009
     16 N         139.3093  139.8324  154.0099 N.1     1  UNL1       -0.1908
     17 C         138.3524  139.2331  165.9567 C.3     1  UNL1        0.0616
     18 C         139.5257  139.5866  166.8218 C.3     1  UNL1        0.1684
     19 N         140.9024  139.6487  166.2296 N.am    1  UNL1       -0.2925
     20 C         141.4479  140.9555  165.7349 C.2     1  UNL1        0.2374
     21 O         140.6166  142.2002  165.8324 O.2     1  UNL1       -0.2736
     22 H         141.4480  138.8317  166.1656 H       1  UNL1        0.1504
     23 C         142.8247  141.0175  165.1427 C.3     1  UNL1        0.1315
     24 C         143.5380  139.7521  164.7688 C.3     1  UNL1        0.0251
     25 C         144.9148  139.8141  164.1765 C.3     1  UNL1        0.0033
     26 C         145.5782  141.1415  163.9583 C.3     1  UNL1        0.0171
     27 C         144.8649  142.4070  164.3322 C.3     1  UNL1        0.0689
     28 N         143.4881  142.3450  164.9244 N.3     1  UNL1       -0.2913
     29 H         142.8779  142.8813  164.3076 H       1  UNL1        0.1236
     30 C         139.3223  139.8781  168.2790 C.1     1  UNL1        0.0927
     31 N         139.1189  140.1696  169.7363 N.1     1  UNL1       -0.1942
@<TRIPOS>BOND
     1    13    14    1
     2    14     7    1
     3     7     8   ar
     4     8     9   ar
     5     9     1    1
     6     1     2   ar
     7     2     3   ar
     8     3     4   ar
     9     4    17    1
    10    18    17    1
    11    18    30    1
    12    30    31    3
    13    18    19    1
    14    19    20   am
    15    20    21    2
    16    23    20    1
    17    23    24    1
    18    24    25    1
    19    25    26    1
    20    26    27    1
    21    27    28    1
    22     4     5   ar
    23     5     6   ar
    24     9    10   ar
    25    10    11   ar
    26    11    12   ar
    27    12    15    1
    28    15    16    3
    29    12     7   ar
    30     6     1   ar
    31    28    23    1
    32    19    22    1
    33    28    29    1
