@<TRIPOS>MOLECULE
*****
 35 38 0 0 0
SMALL
GASTEIGER

@<TRIPOS>ATOM
      1 C         139.4905  141.2442  160.1383 C.ar    1  UNL1        0.1233
      2 C         139.5483  141.3150  161.6355 C.ar    1  UNL1        0.1181
      3 N         138.6779  142.4530  162.0797 N.ar    1  UNL1       -0.2208
      4 N         138.0822  143.0856  160.8570 N.ar    1  UNL1       -0.0633
      5 N         138.5844  142.3385  159.6572 N.ar    1  UNL1       -0.1287
      6 C         141.9565  138.3455  159.0128 C.ar    1  UNL1        0.1547
      7 C         141.2349  139.3366  159.8771 C.ar    1  UNL1        0.0400
      8 C         140.2121  140.2531  159.2739 C.ar    1  UNL1        0.0241
      9 C         139.9110  140.1787  157.8064 C.ar    1  UNL1        0.0033
     10 C         140.6326  139.1876  156.9421 C.ar    1  UNL1        0.0207
     11 C         141.6554  138.2711  157.5453 C.ar    1  UNL1        0.0994
     12 N         142.3770  137.2800  156.6809 N.ar    1  UNL1       -0.2839
     13 C         143.7166  137.4824  156.0372 C.ar    1  UNL1        0.1826
     14 N         144.0532  136.2400  155.2669 N.ar    1  UNL1       -0.2280
     15 C         142.9215  135.2697  155.4347 C.ar    1  UNL1        0.0786
     16 C         142.8402  133.8977  154.8340 C.3     1  UNL1        0.0538
     17 C         141.8856  135.9125  156.3086 C.ar    1  UNL1        0.0963
     18 C         143.5332  137.7173  160.9799 C.3     1  UNL1        0.2525
     19 O         142.9792  137.4290  159.6161 O.3     1  UNL1       -0.4700
     20 C         138.4443  142.8830  163.4976 C.3     1  UNL1        0.2138
     21 C         139.4619  142.5690  164.5540 C.2     1  UNL1        0.2510
     22 O         140.5714  143.5378  164.8381 O.2     1  UNL1       -0.2727
     23 N         139.3702  141.2864  165.3262 N.am    1  UNL1       -0.2660
     24 C         140.3879  140.9724  166.3825 C.3     1  UNL1        0.1205
     25 C         140.1987  141.4809  167.7809 C.ar    1  UNL1       -0.0023
     26 C         140.6213  142.8758  168.1354 C.ar    1  UNL1       -0.0026
     27 C         140.4322  143.3844  169.5338 C.ar    1  UNL1       -0.0003
     28 C         139.8204  142.4980  170.5778 C.ar    1  UNL1       -0.0000
     29 C         139.3977  141.1031  170.2234 C.ar    1  UNL1       -0.0003
     30 C         139.5869  140.5946  168.8250 C.ar    1  UNL1       -0.0026
     31 C         138.2607  140.3176  165.0420 C.3     1  UNL1        0.1976
     32 C         138.4319  138.8640  165.3698 C.3     1  UNL1        0.4157
     33 F         138.6032  137.4103  165.6975 F       1  UNL1       -0.1682
     34 F         137.5585  139.0333  166.5774 F       1  UNL1       -0.1682
     35 F         139.3054  138.6946  164.1620 F       1  UNL1       -0.1682
@<TRIPOS>BOND
     1    18    19    1
     2    19     6    1
     3     6     7   ar
     4     7     8   ar
     5     8     1    1
     6     1     2   ar
     7     2     3   ar
     8     3    20    1
     9    20    21    1
    10    21    22    2
    11    21    23   am
    12    23    24    1
    13    24    25    1
    14    25    26   ar
    15    26    27   ar
    16    27    28   ar
    17    28    29   ar
    18    29    30   ar
    19    23    31    1
    20    31    32    1
    21    32    33    1
    22    32    34    1
    23    32    35    1
    24     3     4   ar
    25     4     5   ar
    26     8     9   ar
    27     9    10   ar
    28    10    11   ar
    29    11    12    1
    30    12    13   ar
    31    13    14   ar
    32    14    15   ar
    33    15    16    1
    34    15    17   ar
    35    11     6   ar
    36    17    12   ar
    37     5     1   ar
    38    30    25   ar
@<TRIPOS>MOLECULE
*****
 35 38 0 0 0
SMALL
GASTEIGER

@<TRIPOS>ATOM
      1 C         140.4119  140.1800  159.5017 C.ar    1  UNL1        0.1233
      2 C         139.8632  139.9312  160.8754 C.ar    1  UNL1        0.1181
      3 N         139.7111  141.2566  161.5609 N.ar    1  UNL1       -0.2208
      4 N         140.1658  142.3248  160.6109 N.ar    1  UNL1       -0.0633
      5 N         140.5988  141.6594  159.3383 N.ar    1  UNL1       -0.1287
      6 C         139.9146  137.4558  156.6589 C.ar    1  UNL1        0.1547
      7 C         139.6070  138.5024  157.6884 C.ar    1  UNL1        0.0400
      8 C         140.7195  139.1334  158.4722 C.ar    1  UNL1        0.0241
      9 C         142.1396  138.7177  158.2263 C.ar    1  UNL1        0.0033
     10 C         142.4472  137.6711  157.1968 C.ar    1  UNL1        0.0207
     11 C         141.3347  137.0402  156.4131 C.ar    1  UNL1        0.0994
     12 N         141.6424  135.9935  155.3836 N.ar    1  UNL1       -0.2839
     13 C         141.7548  136.2176  153.9047 C.ar    1  UNL1        0.1826
     14 N         142.0735  134.9016  153.2593 N.ar    1  UNL1       -0.2280
     15 C         142.1581  133.8641  154.3394 C.ar    1  UNL1        0.0786
     16 C         142.4567  132.4075  154.1413 C.3     1  UNL1        0.0538
     17 C         141.8917  134.5389  155.6522 C.ar    1  UNL1        0.0963
     18 C         138.2778  137.4983  154.6418 C.3     1  UNL1        0.2525
     19 O         138.8021  136.8248  155.8752 O.3     1  UNL1       -0.4700
     20 C         139.1950  141.4756  162.9523 C.3     1  UNL1        0.2138
     21 C         140.1137  141.3147  164.1270 C.2     1  UNL1        0.2510
     22 O         141.4474  142.0013  164.1356 O.2     1  UNL1       -0.2727
     23 N         139.6989  140.4673  165.2931 N.am    1  UNL1       -0.2660
     24 C         140.6176  140.3064  166.4678 C.3     1  UNL1        0.1205
     25 C         140.3392  141.0435  167.7442 C.ar    1  UNL1       -0.0023
     26 C         139.6281  140.3522  168.8696 C.ar    1  UNL1       -0.0026
     27 C         139.3496  141.0893  170.1461 C.ar    1  UNL1       -0.0003
     28 C         139.7822  142.5175  170.2971 C.ar    1  UNL1       -0.0000
     29 C         140.4933  143.2088  169.1717 C.ar    1  UNL1       -0.0003
     30 C         140.7718  142.4717  167.8953 C.ar    1  UNL1       -0.0026
     31 C         138.3652  139.7807  165.2843 C.3     1  UNL1        0.1976
     32 C         138.2449  138.3694  165.7777 C.3     1  UNL1        0.4157
     33 F         138.1246  136.9580  166.2712 F       1  UNL1       -0.1682
     34 F         139.1051  137.8991  164.6424 F       1  UNL1       -0.1682
     35 F         137.3848  138.8397  166.9132 F       1  UNL1       -0.1682
@<TRIPOS>BOND
     1    18    19    1
     2    19     6    1
     3     6     7   ar
     4     7     8   ar
     5     8     1    1
     6     1     2   ar
     7     2     3   ar
     8     3    20    1
     9    20    21    1
    10    21    22    2
    11    21    23   am
    12    23    24    1
    13    24    25    1
    14    25    26   ar
    15    26    27   ar
    16    27    28   ar
    17    28    29   ar
    18    29    30   ar
    19    23    31    1
    20    31    32    1
    21    32    33    1
    22    32    34    1
    23    32    35    1
    24     3     4   ar
    25     4     5   ar
    26     8     9   ar
    27     9    10   ar
    28    10    11   ar
    29    11    12    1
    30    12    13   ar
    31    13    14   ar
    32    14    15   ar
    33    15    16    1
    34    15    17   ar
    35    11     6   ar
    36    17    12   ar
    37     5     1   ar
    38    30    25   ar
@<TRIPOS>MOLECULE
*****
 35 38 0 0 0
SMALL
GASTEIGER

@<TRIPOS>ATOM
      1 C         142.5202  142.0625  160.6619 C.ar    1  UNL1        0.1233
      2 C         142.2701  142.1091  162.1402 C.ar    1  UNL1        0.1181
      3 N         142.5087  143.5146  162.6066 N.ar    1  UNL1       -0.2208
      4 N         142.9064  144.3367  161.4165 N.ar    1  UNL1       -0.0633
      5 N         142.9134  143.4392  160.2147 N.ar    1  UNL1       -0.1287
      6 C         143.2374  139.4364  157.7741 C.ar    1  UNL1        0.1547
      7 C         143.3591  140.6472  158.6512 C.ar    1  UNL1        0.0400
      8 C         142.3984  140.8517  159.7848 C.ar    1  UNL1        0.0241
      9 C         141.3159  139.8455  160.0414 C.ar    1  UNL1        0.0033
     10 C         141.1942  138.6348  159.1643 C.ar    1  UNL1        0.0207
     11 C         142.1549  138.4303  158.0307 C.ar    1  UNL1        0.0994
     12 N         142.0332  137.2195  157.1536 N.ar    1  UNL1       -0.2839
     13 C         140.9799  136.9884  156.1109 C.ar    1  UNL1        0.1826
     14 N         141.2391  135.6534  155.4781 N.ar    1  UNL1       -0.2280
     15 C         142.4526  135.0593  156.1297 C.ar    1  UNL1        0.0786
     16 C         143.0673  133.7306  155.8032 C.3     1  UNL1        0.0538
     17 C         142.9433  136.0272  157.1652 C.ar    1  UNL1        0.0963
     18 C         144.9856  140.3914  156.1063 C.3     1  UNL1        0.2525
     19 O         144.1981  139.2319  156.6405 O.3     1  UNL1       -0.4700
     20 C         142.3735  144.0110  164.0156 C.3     1  UNL1        0.2138
     21 C         141.9965  143.0602  165.1128 C.2     1  UNL1        0.2510
     22 O         143.0488  142.5331  166.0429 O.2     1  UNL1       -0.2727
     23 N         140.5675  142.6365  165.2800 N.am    1  UNL1       -0.2660
     24 C         140.1904  141.6857  166.3772 C.3     1  UNL1        0.1205
     25 C         139.7329  140.2970  166.0420 C.ar    1  UNL1       -0.0023
     26 C         140.5031  139.4715  165.0545 C.ar    1  UNL1       -0.0026
     27 C         140.0456  138.0828  164.7193 C.ar    1  UNL1       -0.0003
     28 C         138.8178  137.5197  165.3716 C.ar    1  UNL1       -0.0000
     29 C         138.0476  138.3453  166.3591 C.ar    1  UNL1       -0.0003
     30 C         138.5052  139.7340  166.6943 C.ar    1  UNL1       -0.0026
     31 C         139.5152  143.1636  164.3498 C.3     1  UNL1        0.1976
     32 C         138.3372  143.9132  164.8977 C.3     1  UNL1        0.4157
     33 F         137.1591  144.6628  165.4455 F       1  UNL1       -0.1682
     34 F         139.1862  145.1413  165.0431 F       1  UNL1       -0.1682
     35 F         137.4881  142.6852  164.7523 F       1  UNL1       -0.1682
@<TRIPOS>BOND
     1    18    19    1
     2    19     6    1
     3     6     7   ar
     4     7     8   ar
     5     8     1    1
     6     1     2   ar
     7     2     3   ar
     8     3    20    1
     9    20    21    1
    10    21    22    2
    11    21    23   am
    12    23    24    1
    13    24    25    1
    14    25    26   ar
    15    26    27   ar
    16    27    28   ar
    17    28    29   ar
    18    29    30   ar
    19    23    31    1
    20    31    32    1
    21    32    33    1
    22    32    34    1
    23    32    35    1
    24     3     4   ar
    25     4     5   ar
    26     8     9   ar
    27     9    10   ar
    28    10    11   ar
    29    11    12    1
    30    12    13   ar
    31    13    14   ar
    32    14    15   ar
    33    15    16    1
    34    15    17   ar
    35    11     6   ar
    36    17    12   ar
    37     5     1   ar
    38    30    25   ar
@<TRIPOS>MOLECULE
*****
 35 38 0 0 0
SMALL
GASTEIGER

@<TRIPOS>ATOM
      1 C         142.8667  137.0676  157.5812 C.ar    1  UNL1        0.1233
      2 C         142.4905  137.3610  159.0033 C.ar    1  UNL1        0.1181
      3 N         142.8743  138.7802  159.3009 N.ar    1  UNL1       -0.2208
      4 N         143.4878  139.3639  158.0627 N.ar    1  UNL1       -0.0633
      5 N         143.4831  138.3054  156.9999 N.ar    1  UNL1       -0.1287
      6 C         143.2127  133.2413  156.5862 C.ar    1  UNL1        0.1547
      7 C         143.4169  134.5439  157.3014 C.ar    1  UNL1        0.0400
      8 C         142.6625  135.7650  156.8659 C.ar    1  UNL1        0.0241
      9 C         141.7038  135.6835  155.7152 C.ar    1  UNL1        0.0033
     10 C         141.4996  134.3810  154.9999 C.ar    1  UNL1        0.0207
     11 C         142.2540  133.1598  155.4355 C.ar    1  UNL1        0.0994
     12 N         142.0498  131.8572  154.7202 N.ar    1  UNL1       -0.2839
     13 C         142.9626  131.2660  153.6872 C.ar    1  UNL1        0.1826
     14 N         142.3738  129.9606  153.2409 N.ar    1  UNL1       -0.2280
     15 C         141.0970  129.7450  153.9981 C.ar    1  UNL1        0.0786
     16 C         140.1812  128.5645  153.8645 C.3     1  UNL1        0.0538
     17 C         140.8967  130.9172  154.9123 C.ar    1  UNL1        0.0963
     18 C         145.1925  132.1604  157.8755 C.3     1  UNL1        0.2525
     19 O         143.9672  132.0202  157.0217 O.3     1  UNL1       -0.4700
     20 C         142.6790  139.4909  160.6073 C.3     1  UNL1        0.2138
     21 C         142.4764  138.7024  161.8672 C.2     1  UNL1        0.2510
     22 O         143.6533  138.3460  162.7263 O.2     1  UNL1       -0.2727
     23 N         141.0971  138.2704  162.2680 N.am    1  UNL1       -0.2660
     24 C         140.8945  137.4819  163.5279 C.3     1  UNL1        0.1205
     25 C         140.1711  138.0966  164.6893 C.ar    1  UNL1       -0.0023
     26 C         138.8571  137.5301  165.1393 C.ar    1  UNL1       -0.0026
     27 C         138.1337  138.1448  166.3007 C.ar    1  UNL1       -0.0003
     28 C         138.7243  139.3260  167.0121 C.ar    1  UNL1       -0.0000
     29 C         140.0383  139.8924  166.5621 C.ar    1  UNL1       -0.0003
     30 C         140.7617  139.2777  165.4007 C.ar    1  UNL1       -0.0026
     31 C         139.9202  138.6269  161.4089 C.3     1  UNL1        0.1976
     32 C         138.7419  139.3359  162.0077 C.3     1  UNL1        0.4157
     33 F         137.5635  140.0451  162.6065 F       1  UNL1       -0.1682
     34 F         137.9140  138.0954  161.8477 F       1  UNL1       -0.1682
     35 F         139.5698  140.5766  162.1677 F       1  UNL1       -0.1682
@<TRIPOS>BOND
     1    18    19    1
     2    19     6    1
     3     6     7   ar
     4     7     8   ar
     5     8     1    1
     6     1     2   ar
     7     2     3   ar
     8     3    20    1
     9    20    21    1
    10    21    22    2
    11    21    23   am
    12    23    24    1
    13    24    25    1
    14    25    26   ar
    15    26    27   ar
    16    27    28   ar
    17    28    29   ar
    18    29    30   ar
    19    23    31    1
    20    31    32    1
    21    32    33    1
    22    32    34    1
    23    32    35    1
    24     3     4   ar
    25     4     5   ar
    26     8     9   ar
    27     9    10   ar
    28    10    11   ar
    29    11    12    1
    30    12    13   ar
    31    13    14   ar
    32    14    15   ar
    33    15    16    1
    34    15    17   ar
    35    11     6   ar
    36    17    12   ar
    37     5     1   ar
    38    30    25   ar
@<TRIPOS>MOLECULE
*****
 35 38 0 0 0
SMALL
GASTEIGER

@<TRIPOS>ATOM
      1 C         140.3007  142.5951  159.9945 C.ar    1  UNL1        0.1233
      2 C         140.3064  142.3763  161.4784 C.ar    1  UNL1        0.1181
      3 N         138.9371  142.6976  161.9996 N.ar    1  UNL1       -0.2208
      4 N         138.0850  143.1151  160.8378 N.ar    1  UNL1       -0.0633
      5 N         138.9278  143.0517  159.5986 N.ar    1  UNL1       -0.1287
      6 C         143.1544  140.8090  157.8931 C.ar    1  UNL1        0.1547
      7 C         141.9915  141.0113  158.8186 C.ar    1  UNL1        0.0400
      8 C         141.4637  142.3928  159.0689 C.ar    1  UNL1        0.0241
      9 C         142.0988  143.5721  158.3938 C.ar    1  UNL1        0.0033
     10 C         143.2617  143.3698  157.4683 C.ar    1  UNL1        0.0207
     11 C         143.7895  141.9882  157.2179 C.ar    1  UNL1        0.0994
     12 N         144.9525  141.7860  156.2923 N.ar    1  UNL1       -0.2839
     13 C         144.8743  141.3372  154.8632 C.ar    1  UNL1        0.1826
     14 N         146.2713  141.2709  154.3211 N.ar    1  UNL1       -0.2280
     15 C         147.2130  141.6786  155.4152 C.ar    1  UNL1        0.0786
     16 C         148.7074  141.7546  155.3096 C.3     1  UNL1        0.0538
     17 C         146.3979  141.9969  156.6335 C.ar    1  UNL1        0.0963
     18 C         142.9947  138.5289  156.6579 C.3     1  UNL1        0.2525
     19 O         143.6822  139.4274  157.6427 O.3     1  UNL1       -0.4700
     20 C         138.4970  142.6159  163.4313 C.3     1  UNL1        0.2138
     21 C         139.5045  142.3575  164.5121 C.2     1  UNL1        0.2510
     22 O         140.6249  143.3285  164.7407 O.2     1  UNL1       -0.2727
     23 N         139.3919  141.1283  165.3642 N.am    1  UNL1       -0.2660
     24 C         140.3994  140.8699  166.4450 C.3     1  UNL1        0.1205
     25 C         140.1941  141.4453  167.8149 C.ar    1  UNL1       -0.0023
     26 C         139.5712  140.6098  168.8937 C.ar    1  UNL1       -0.0026
     27 C         139.3659  141.1853  170.2637 C.ar    1  UNL1       -0.0003
     28 C         139.7835  142.5962  170.5548 C.ar    1  UNL1       -0.0000
     29 C         140.4064  143.4317  169.4760 C.ar    1  UNL1       -0.0003
     30 C         140.6117  142.8563  168.1061 C.ar    1  UNL1       -0.0026
     31 C         138.2715  140.1573  165.1355 C.3     1  UNL1        0.1976
     32 C         138.5200  138.6832  165.2573 C.3     1  UNL1        0.4157
     33 F         138.7686  137.2089  165.3791 F       1  UNL1       -0.1682
     34 F         137.7091  138.6506  166.5188 F       1  UNL1       -0.1682
     35 F         139.3310  138.7156  163.9958 F       1  UNL1       -0.1682
@<TRIPOS>BOND
     1    18    19    1
     2    19     6    1
     3     6     7   ar
     4     7     8   ar
     5     8     1    1
     6     1     2   ar
     7     2     3   ar
     8     3    20    1
     9    20    21    1
    10    21    22    2
    11    21    23   am
    12    23    24    1
    13    24    25    1
    14    25    26   ar
    15    26    27   ar
    16    27    28   ar
    17    28    29   ar
    18    29    30   ar
    19    23    31    1
    20    31    32    1
    21    32    33    1
    22    32    34    1
    23    32    35    1
    24     3     4   ar
    25     4     5   ar
    26     8     9   ar
    27     9    10   ar
    28    10    11   ar
    29    11    12    1
    30    12    13   ar
    31    13    14   ar
    32    14    15   ar
    33    15    16    1
    34    15    17   ar
    35    11     6   ar
    36    17    12   ar
    37     5     1   ar
    38    30    25   ar
@<TRIPOS>MOLECULE
*****
 35 38 0 0 0
SMALL
GASTEIGER

@<TRIPOS>ATOM
      1 C         140.8190  144.2134  160.5644 C.ar    1  UNL1        0.1233
      2 C         139.9218  143.3977  161.4474 C.ar    1  UNL1        0.1181
      3 N         138.9915  144.3365  162.1568 N.ar    1  UNL1       -0.2208
      4 N         139.3138  145.7325  161.7123 N.ar    1  UNL1       -0.0633
      5 N         140.4432  145.6564  160.7282 N.ar    1  UNL1       -0.1287
      6 C         142.9825  143.4756  157.3202 C.ar    1  UNL1        0.1547
      7 C         141.8997  144.0091  158.2106 C.ar    1  UNL1        0.0400
      8 C         141.9019  143.6799  159.6740 C.ar    1  UNL1        0.0241
      9 C         142.9870  142.8173  160.2471 C.ar    1  UNL1        0.0033
     10 C         144.0698  142.2838  159.3567 C.ar    1  UNL1        0.0207
     11 C         144.0676  142.6130  157.8932 C.ar    1  UNL1        0.0994
     12 N         145.1505  142.0795  157.0028 N.ar    1  UNL1       -0.2839
     13 C         145.0034  140.9716  156.0023 C.ar    1  UNL1        0.1826
     14 N         146.3325  140.7676  155.3378 N.ar    1  UNL1       -0.2280
     15 C         147.3012  141.7495  155.9276 C.ar    1  UNL1        0.0786
     16 C         148.7466  141.8949  155.5540 C.3     1  UNL1        0.0538
     17 C         146.5706  142.5602  156.9566 C.ar    1  UNL1        0.0963
     18 C         141.7698  143.5062  155.0227 C.3     1  UNL1        0.2525
     19 O         142.9802  143.8048  155.8568 O.3     1  UNL1       -0.4700
     20 C         137.9260  143.9476  163.1384 C.3     1  UNL1        0.2138
     21 C         137.8068  142.5223  163.5905 C.2     1  UNL1        0.2510
     22 O         136.9586  141.5581  162.8151 O.2     1  UNL1       -0.2727
     23 N         138.5355  142.0612  164.8177 N.am    1  UNL1       -0.2660
     24 C         138.4162  140.6359  165.2697 C.3     1  UNL1        0.1205
     25 C         139.2698  139.5754  164.6399 C.ar    1  UNL1       -0.0023
     26 C         138.7384  138.7681  163.4928 C.ar    1  UNL1       -0.0026
     27 C         139.5920  137.7076  162.8629 C.ar    1  UNL1       -0.0003
     28 C         140.9770  137.4543  163.3802 C.ar    1  UNL1       -0.0000
     29 C         141.5084  138.2616  164.5273 C.ar    1  UNL1       -0.0003
     30 C         140.6548  139.3222  165.1571 C.ar    1  UNL1       -0.0026
     31 C         139.3836  143.0255  165.5930 C.3     1  UNL1        0.1976
     32 C         140.8111  142.6863  165.9044 C.3     1  UNL1        0.4157
     33 F         142.2387  142.3472  166.2158 F       1  UNL1       -0.1682
     34 F         140.4625  142.5528  167.3572 F       1  UNL1       -0.1682
     35 F         141.1598  142.8199  164.4516 F       1  UNL1       -0.1682
@<TRIPOS>BOND
     1    18    19    1
     2    19     6    1
     3     6     7   ar
     4     7     8   ar
     5     8     1    1
     6     1     2   ar
     7     2     3   ar
     8     3    20    1
     9    20    21    1
    10    21    22    2
    11    21    23   am
    12    23    24    1
    13    24    25    1
    14    25    26   ar
    15    26    27   ar
    16    27    28   ar
    17    28    29   ar
    18    29    30   ar
    19    23    31    1
    20    31    32    1
    21    32    33    1
    22    32    34    1
    23    32    35    1
    24     3     4   ar
    25     4     5   ar
    26     8     9   ar
    27     9    10   ar
    28    10    11   ar
    29    11    12    1
    30    12    13   ar
    31    13    14   ar
    32    14    15   ar
    33    15    16    1
    34    15    17   ar
    35    11     6   ar
    36    17    12   ar
    37     5     1   ar
    38    30    25   ar
@<TRIPOS>MOLECULE
*****
 35 38 0 0 0
SMALL
GASTEIGER

@<TRIPOS>ATOM
      1 C         141.4526  143.1596  160.7951 C.ar    1  UNL1        0.1233
      2 C         141.4093  142.9064  162.2729 C.ar    1  UNL1        0.1181
      3 N         142.5181  143.6903  162.9102 N.ar    1  UNL1       -0.2208
      4 N         143.2467  144.4280  161.8262 N.ar    1  UNL1       -0.0633
      5 N         142.5881  144.1000  160.5190 N.ar    1  UNL1       -0.1287
      6 C         138.7185  140.8274  159.1112 C.ar    1  UNL1        0.1547
      7 C         139.6475  141.4120  160.1334 C.ar    1  UNL1        0.0400
      8 C         140.5235  142.5750  159.7728 C.ar    1  UNL1        0.0241
      9 C         140.4703  143.1535  158.3899 C.ar    1  UNL1        0.0033
     10 C         139.5412  142.5689  157.3676 C.ar    1  UNL1        0.0207
     11 C         138.6653  141.4059  157.7283 C.ar    1  UNL1        0.0994
     12 N         137.7362  140.8213  156.7060 N.ar    1  UNL1       -0.2839
     13 C         138.0730  139.7362  155.7266 C.ar    1  UNL1        0.1826
     14 N         136.8521  139.4635  154.8989 N.ar    1  UNL1       -0.2280
     15 C         135.7607  140.3801  155.3667 C.ar    1  UNL1        0.0786
     16 C         134.3675  140.4460  154.8146 C.3     1  UNL1        0.0538
     17 C         136.3071  141.2193  156.4835 C.ar    1  UNL1        0.0963
     18 C         137.4474  139.4378  160.9010 C.3     1  UNL1        0.2525
     19 O         137.8425  139.6644  159.4719 O.3     1  UNL1       -0.4700
     20 C         142.8415  143.7296  164.3744 C.3     1  UNL1        0.2138
     21 C         142.2646  142.6979  165.2979 C.2     1  UNL1        0.2510
     22 O         140.9981  142.9871  166.0479 O.2     1  UNL1       -0.2727
     23 N         142.9541  141.3772  165.4714 N.am    1  UNL1       -0.2660
     24 C         142.3772  140.3455  166.3949 C.3     1  UNL1        0.1205
     25 C         141.2514  139.4694  165.9312 C.ar    1  UNL1       -0.0023
     26 C         139.8382  139.8011  166.3091 C.ar    1  UNL1       -0.0026
     27 C         138.7124  138.9250  165.8453 C.ar    1  UNL1       -0.0003
     28 C         138.9999  137.7171  165.0036 C.ar    1  UNL1       -0.0000
     29 C         140.4130  137.3854  164.6257 C.ar    1  UNL1       -0.0003
     30 C         141.5388  138.2615  165.0895 C.ar    1  UNL1       -0.0026
     31 C         144.2206  141.0881  164.7214 C.3     1  UNL1        0.1976
     32 C         144.3052  139.8867  163.8273 C.3     1  UNL1        0.4157
     33 F         144.3900  138.6853  162.9333 F       1  UNL1       -0.1682
     34 F         143.1478  140.4024  163.0247 F       1  UNL1       -0.1682
     35 F         145.4628  139.3710  164.6300 F       1  UNL1       -0.1682
@<TRIPOS>BOND
     1    18    19    1
     2    19     6    1
     3     6     7   ar
     4     7     8   ar
     5     8     1    1
     6     1     2   ar
     7     2     3   ar
     8     3    20    1
     9    20    21    1
    10    21    22    2
    11    21    23   am
    12    23    24    1
    13    24    25    1
    14    25    26   ar
    15    26    27   ar
    16    27    28   ar
    17    28    29   ar
    18    29    30   ar
    19    23    31    1
    20    31    32    1
    21    32    33    1
    22    32    34    1
    23    32    35    1
    24     3     4   ar
    25     4     5   ar
    26     8     9   ar
    27     9    10   ar
    28    10    11   ar
    29    11    12    1
    30    12    13   ar
    31    13    14   ar
    32    14    15   ar
    33    15    16    1
    34    15    17   ar
    35    11     6   ar
    36    17    12   ar
    37     5     1   ar
    38    30    25   ar
@<TRIPOS>MOLECULE
*****
 35 38 0 0 0
SMALL
GASTEIGER

@<TRIPOS>ATOM
      1 C         138.5954  141.5749  160.9712 C.ar    1  UNL1        0.1233
      2 C         138.9976  141.3047  162.3908 C.ar    1  UNL1        0.1181
      3 N         138.4779  142.4256  163.2412 N.ar    1  UNL1       -0.2208
      4 N         137.7544  143.3887  162.3473 N.ar    1  UNL1       -0.0633
      5 N         137.8271  142.8629  160.9443 N.ar    1  UNL1       -0.1287
      6 C         138.8782  140.3143  157.2187 C.ar    1  UNL1        0.1547
      7 C         138.5668  141.1800  158.4034 C.ar    1  UNL1        0.0400
      8 C         138.9069  140.7092  159.7864 C.ar    1  UNL1        0.0241
      9 C         139.5584  139.3727  159.9847 C.ar    1  UNL1        0.0033
     10 C         139.8698  138.5071  158.8000 C.ar    1  UNL1        0.0207
     11 C         139.5297  138.9778  157.4170 C.ar    1  UNL1        0.0994
     12 N         139.8412  138.1121  156.2323 N.ar    1  UNL1       -0.2839
     13 C         138.8383  137.4129  155.3632 C.ar    1  UNL1        0.1826
     14 N         139.5875  136.6623  154.3024 N.ar    1  UNL1       -0.2280
     15 C         141.0535  136.8976  154.5159 C.ar    1  UNL1        0.0786
     16 C         142.1672  136.3355  153.6830 C.3     1  UNL1        0.0538
     17 C         141.2103  137.7936  155.7086 C.ar    1  UNL1        0.0963
     18 C         137.1051  140.9999  155.4478 C.3     1  UNL1        0.2525
     19 O         138.5381  140.7851  155.8357 O.3     1  UNL1       -0.4700
     20 C         138.6512  142.5599  164.7251 C.3     1  UNL1        0.2138
     21 C         139.7693  141.8390  165.4180 C.2     1  UNL1        0.2510
     22 O         141.0973  142.5125  165.5993 O.2     1  UNL1       -0.2727
     23 N         139.5595  140.4447  165.9295 N.am    1  UNL1       -0.2660
     24 C         140.6776  139.7237  166.6224 C.3     1  UNL1        0.1205
     25 C         141.0074  140.0465  168.0497 C.ar    1  UNL1       -0.0023
     26 C         142.4396  140.1539  168.4826 C.ar    1  UNL1       -0.0026
     27 C         142.7694  140.4766  169.9099 C.ar    1  UNL1       -0.0003
     28 C         141.6672  140.6920  170.9042 C.ar    1  UNL1       -0.0000
     29 C         140.2350  140.5846  170.4712 C.ar    1  UNL1       -0.0003
     30 C         139.9052  140.2618  169.0439 C.ar    1  UNL1       -0.0026
     31 C         138.2314  139.7712  165.7482 C.3     1  UNL1        0.1976
     32 C         138.0732  138.3199  166.0921 C.3     1  UNL1        0.4157
     33 F         137.9151  136.8684  166.4360 F       1  UNL1       -0.1682
     34 F         137.4584  138.6984  167.4069 F       1  UNL1       -0.1682
     35 F         138.6881  137.9413  164.7773 F       1  UNL1       -0.1682
@<TRIPOS>BOND
     1    18    19    1
     2    19     6    1
     3     6     7   ar
     4     7     8   ar
     5     8     1    1
     6     1     2   ar
     7     2     3   ar
     8     3    20    1
     9    20    21    1
    10    21    22    2
    11    21    23   am
    12    23    24    1
    13    24    25    1
    14    25    26   ar
    15    26    27   ar
    16    27    28   ar
    17    28    29   ar
    18    29    30   ar
    19    23    31    1
    20    31    32    1
    21    32    33    1
    22    32    34    1
    23    32    35    1
    24     3     4   ar
    25     4     5   ar
    26     8     9   ar
    27     9    10   ar
    28    10    11   ar
    29    11    12    1
    30    12    13   ar
    31    13    14   ar
    32    14    15   ar
    33    15    16    1
    34    15    17   ar
    35    11     6   ar
    36    17    12   ar
    37     5     1   ar
    38    30    25   ar
@<TRIPOS>MOLECULE
*****
 35 38 0 0 0
SMALL
GASTEIGER

@<TRIPOS>ATOM
      1 C         142.8796  137.2180  157.3839 C.ar    1  UNL1        0.1233
      2 C         142.2869  137.6315  158.6983 C.ar    1  UNL1        0.1181
      3 N         142.7606  139.0215  159.0037 N.ar    1  UNL1       -0.2208
      4 N         143.6462  139.4672  157.8780 N.ar    1  UNL1       -0.0633
      5 N         143.7197  138.3526  156.8769 N.ar    1  UNL1       -0.1287
      6 C         143.1867  133.3637  156.4896 C.ar    1  UNL1        0.1547
      7 C         143.3971  134.6805  157.1764 C.ar    1  UNL1        0.0400
      8 C         142.6691  135.9012  156.6970 C.ar    1  UNL1        0.0241
      9 C         141.7307  135.8051  155.5308 C.ar    1  UNL1        0.0033
     10 C         141.5203  134.4884  154.8440 C.ar    1  UNL1        0.0207
     11 C         142.2483  133.2676  155.3234 C.ar    1  UNL1        0.0994
     12 N         142.0379  131.9508  154.6365 N.ar    1  UNL1       -0.2839
     13 C         142.5387  131.5778  153.2726 C.ar    1  UNL1        0.1826
     14 N         142.1000  130.1723  152.9861 N.ar    1  UNL1       -0.2280
     15 C         141.3280  129.6766  154.1729 C.ar    1  UNL1        0.0786
     16 C         140.7040  128.3200  154.3148 C.3     1  UNL1        0.0538
     17 C         141.2896  130.7758  155.1929 C.ar    1  UNL1        0.0963
     18 C         145.0654  132.2815  157.9212 C.3     1  UNL1        0.2525
     19 O         143.9148  132.1430  156.9689 O.3     1  UNL1       -0.4700
     20 C         142.4104  139.8249  160.2211 C.3     1  UNL1        0.2138
     21 C         143.3085  139.7968  161.4222 C.2     1  UNL1        0.2510
     22 O         144.4713  140.7404  161.5114 O.2     1  UNL1       -0.2727
     23 N         143.0440  138.8253  162.5339 N.am    1  UNL1       -0.2660
     24 C         143.9421  138.7973  163.7350 C.3     1  UNL1        0.1205
     25 C         143.4899  139.4163  165.0243 C.ar    1  UNL1       -0.0023
     26 C         143.2905  138.5587  166.2387 C.ar    1  UNL1       -0.0026
     27 C         142.8383  139.1777  167.5280 C.ar    1  UNL1       -0.0003
     28 C         142.5854  140.6543  167.6030 C.ar    1  UNL1       -0.0000
     29 C         142.7848  141.5119  166.3886 C.ar    1  UNL1       -0.0003
     30 C         143.2371  140.8929  165.0993 C.ar    1  UNL1       -0.0026
     31 C         141.8813  137.8818  162.4446 C.3     1  UNL1        0.1976
     32 C         140.7868  137.9412  163.4685 C.3     1  UNL1        0.4157
     33 F         139.6923  138.0005  164.4925 F       1  UNL1       -0.1682
     34 F         140.3007  139.2298  162.8743 F       1  UNL1       -0.1682
     35 F         141.2729  136.6525  164.0628 F       1  UNL1       -0.1682
@<TRIPOS>BOND
     1    18    19    1
     2    19     6    1
     3     6     7   ar
     4     7     8   ar
     5     8     1    1
     6     1     2   ar
     7     2     3   ar
     8     3    20    1
     9    20    21    1
    10    21    22    2
    11    21    23   am
    12    23    24    1
    13    24    25    1
    14    25    26   ar
    15    26    27   ar
    16    27    28   ar
    17    28    29   ar
    18    29    30   ar
    19    23    31    1
    20    31    32    1
    21    32    33    1
    22    32    34    1
    23    32    35    1
    24     3     4   ar
    25     4     5   ar
    26     8     9   ar
    27     9    10   ar
    28    10    11   ar
    29    11    12    1
    30    12    13   ar
    31    13    14   ar
    32    14    15   ar
    33    15    16    1
    34    15    17   ar
    35    11     6   ar
    36    17    12   ar
    37     5     1   ar
    38    30    25   ar
