@<TRIPOS>MOLECULE
*****
 29 32 0 0 0
SMALL
GASTEIGER

@<TRIPOS>ATOM
      1 C         140.0374  140.0636  166.6262 C.3     1  UNL1        0.0517
      2 C         138.8253  139.9318  165.7525 C.3     1  UNL1        0.0241
      3 C         138.8701  139.0572  164.5346 C.3     1  UNL1        0.0726
      4 N         140.1270  138.3144  164.1905 N.3     1  UNL1       -0.2706
      5 C         141.3391  138.4462  165.0643 C.3     1  UNL1        0.1020
      6 C         141.2943  139.3208  166.2821 C.3     1  UNL1        0.1304
      7 O         142.5065  139.4526  167.1559 O.3     1  UNL1       -0.3827
      8 H         142.3095  140.0503  167.8940 H       1  UNL1        0.2104
      9 C         140.9909  142.9037  166.4691 C.3     1  UNL1        0.0307
     10 C         140.4694  142.3583  167.7655 C.ar    1  UNL1       -0.0257
     11 C         140.4246  143.2329  168.9833 C.ar    1  UNL1       -0.0046
     12 C         139.9032  142.6874  170.2796 C.ar    1  UNL1       -0.0003
     13 C         139.4264  141.2673  170.3582 C.ar    1  UNL1       -0.0003
     14 C         139.4712  140.3928  169.1404 C.ar    1  UNL1       -0.0045
     15 C         139.9926  140.9382  167.8441 C.ar    1  UNL1       -0.0240
     16 C         140.1718  137.4398  162.9727 C.3     1  UNL1        0.0722
     17 C         140.7396  137.9696  161.6894 C.3     1  UNL1        0.0191
     18 C         139.7361  138.3446  160.6395 C.3     1  UNL1        0.0062
     19 C         139.9811  138.8969  159.2666 C.3     1  UNL1        0.0277
     20 C         141.2900  139.2106  158.6044 C.ar    1  UNL1       -0.0063
     21 C         141.0881  139.7499  157.2194 C.ar    1  UNL1       -0.0014
     22 C         142.2735  140.1280  156.3817 C.ar    1  UNL1        0.0203
     23 C         143.6608  139.9669  156.9290 C.ar    1  UNL1        0.0985
     24 N         143.8626  139.4276  158.3140 N.ar    1  UNL1       -0.2461
     25 C         142.6773  139.0494  159.1517 C.ar    1  UNL1        0.0817
     26 C         143.0982  138.5348  160.4963 C.3     1  UNL1        0.1498
     27 O         144.5770  138.4955  160.7444 O.3     1  UNL1       -0.3785
     28 C         142.2359  138.0542  161.6258 C.3     1  UNL1        0.0368
     29 H         145.0451  138.8238  159.9608 H       1  UNL1        0.2108
@<TRIPOS>BOND
     1     9    10    1
     2    10    11   ar
     3    11    12   ar
     4    12    13   ar
     5    13    14   ar
     6    14    15   ar
     7     1    15    1
     8     1     2    1
     9     2     3    1
    10     3     4    1
    11     4    16    1
    12    17    16    1
    13    17    18    1
    14    18    19    1
    15    19    20    1
    16    20    21   ar
    17    21    22   ar
    18    22    23   ar
    19    23    24   ar
    20    24    25   ar
    21    25    26    1
    22    26    27    1
    23    26    28    1
    24     4     5    1
    25     5     6    1
    26     6     7    1
    27    15    10   ar
    28     6     1    1
    29    28    17    1
    30    25    20   ar
    31    27    29    1
    32     7     8    1
@<TRIPOS>MOLECULE
*****
 29 32 0 0 0
SMALL
GASTEIGER

@<TRIPOS>ATOM
      1 C         139.7874  140.9292  166.5914 C.3     1  UNL1        0.0517
      2 C         139.9689  142.3666  166.2031 C.3     1  UNL1        0.0241
      3 C         139.2587  142.9141  165.0005 C.3     1  UNL1        0.0726
      4 N         138.3670  142.0240  164.1864 N.3     1  UNL1       -0.2706
      5 C         138.1856  140.5866  164.5748 C.3     1  UNL1        0.1020
      6 C         138.8958  140.0392  165.7773 C.3     1  UNL1        0.1304
      7 O         138.7143  138.6017  166.1657 O.3     1  UNL1       -0.3827
      8 H         139.2390  138.4125  166.9592 H       1  UNL1        0.2104
      9 C         142.5494  139.7917  166.3134 C.3     1  UNL1        0.0307
     10 C         141.8786  139.8130  167.6549 C.ar    1  UNL1       -0.0257
     11 C         142.5888  139.2656  168.8574 C.ar    1  UNL1       -0.0046
     12 C         141.9179  139.2869  170.1988 C.ar    1  UNL1       -0.0003
     13 C         140.5369  139.8557  170.3378 C.ar    1  UNL1       -0.0003
     14 C         139.8267  140.4031  169.1354 C.ar    1  UNL1       -0.0045
     15 C         140.4976  140.3818  167.7939 C.ar    1  UNL1       -0.0240
     16 C         137.6569  142.5714  162.9839 C.3     1  UNL1        0.0722
     17 C         138.4458  143.0802  161.8140 C.3     1  UNL1        0.0191
     18 C         138.2856  142.3103  160.5367 C.3     1  UNL1        0.0062
     19 C         138.9307  142.5618  159.2060 C.3     1  UNL1        0.0277
     20 C         139.8953  143.6451  158.8240 C.ar    1  UNL1       -0.0063
     21 C         140.2997  143.5360  157.3837 C.ar    1  UNL1       -0.0014
     22 C         141.2618  144.5264  156.7977 C.ar    1  UNL1        0.0203
     23 C         141.8195  145.6259  157.6521 C.ar    1  UNL1        0.0985
     24 N         141.4152  145.7351  159.0924 N.ar    1  UNL1       -0.2461
     25 C         140.4531  144.7447  159.6783 C.ar    1  UNL1        0.0817
     26 C         140.1839  145.0324  161.1257 C.3     1  UNL1        0.1498
     27 O         140.9033  146.2176  161.6983 O.3     1  UNL1       -0.3785
     28 C         139.2907  144.2917  162.0762 C.3     1  UNL1        0.0368
     29 H         141.4516  146.6263  161.0104 H       1  UNL1        0.2108
@<TRIPOS>BOND
     1     9    10    1
     2    10    11   ar
     3    11    12   ar
     4    12    13   ar
     5    13    14   ar
     6    14    15   ar
     7     1    15    1
     8     1     2    1
     9     2     3    1
    10     3     4    1
    11     4    16    1
    12    17    16    1
    13    17    18    1
    14    18    19    1
    15    19    20    1
    16    20    21   ar
    17    21    22   ar
    18    22    23   ar
    19    23    24   ar
    20    24    25   ar
    21    25    26    1
    22    26    27    1
    23    26    28    1
    24     4     5    1
    25     5     6    1
    26     6     7    1
    27    15    10   ar
    28     6     1    1
    29    28    17    1
    30    25    20   ar
    31    27    29    1
    32     7     8    1
@<TRIPOS>MOLECULE
*****
 29 32 0 0 0
SMALL
GASTEIGER

@<TRIPOS>ATOM
      1 C         140.3381  139.8964  167.2818 C.3     1  UNL1        0.0517
      2 C         138.9911  139.4284  166.8165 C.3     1  UNL1        0.0241
      3 C         138.8762  138.5794  165.5852 C.3     1  UNL1        0.0726
      4 N         140.1084  138.1985  164.8192 N.3     1  UNL1       -0.2706
      5 C         141.4554  138.6665  165.2846 C.3     1  UNL1        0.1020
      6 C         141.5703  139.5155  166.5159 C.3     1  UNL1        0.1304
      7 O         142.9173  139.9835  166.9812 O.3     1  UNL1       -0.3827
      8 H         142.8143  140.5173  167.7846 H       1  UNL1        0.2104
      9 C         140.3859  142.8865  167.0431 C.3     1  UNL1        0.0307
     10 C         140.4769  142.2404  168.3938 C.ar    1  UNL1       -0.0257
     11 C         140.5918  143.0894  169.6250 C.ar    1  UNL1       -0.0046
     12 C         140.6828  142.4433  170.9757 C.ar    1  UNL1       -0.0003
     13 C         140.6589  140.9483  171.0951 C.ar    1  UNL1       -0.0003
     14 C         140.5440  140.0993  169.8638 C.ar    1  UNL1       -0.0045
     15 C         140.4530  140.7454  168.5132 C.ar    1  UNL1       -0.0240
     16 C         139.9935  137.3496  163.5879 C.3     1  UNL1        0.0722
     17 C         139.8439  137.9959  162.2426 C.3     1  UNL1        0.0191
     18 C         141.0912  138.0667  161.4123 C.3     1  UNL1        0.0062
     19 C         141.2693  138.6451  160.0398 C.3     1  UNL1        0.0277
     20 C         140.2443  139.2954  159.1586 C.ar    1  UNL1       -0.0063
     21 C         140.8429  139.7388  157.8567 C.ar    1  UNL1       -0.0014
     22 C         139.9852  140.4148  156.8285 C.ar    1  UNL1        0.0203
     23 C         138.5288  140.6474  157.1022 C.ar    1  UNL1        0.0985
     24 N         137.9302  140.2040  158.4041 N.ar    1  UNL1       -0.2461
     25 C         138.7879  139.5280  159.4323 C.ar    1  UNL1        0.0817
     26 C         137.9969  139.1677  160.6548 C.3     1  UNL1        0.1498
     27 O         136.5438  139.5383  160.6223 O.3     1  UNL1       -0.3785
     28 C         138.4668  138.4858  161.9055 C.3     1  UNL1        0.0368
     29 H         136.3392  139.9707  159.7785 H       1  UNL1        0.2108
@<TRIPOS>BOND
     1     9    10    1
     2    10    11   ar
     3    11    12   ar
     4    12    13   ar
     5    13    14   ar
     6    14    15   ar
     7     1    15    1
     8     1     2    1
     9     2     3    1
    10     3     4    1
    11     4    16    1
    12    17    16    1
    13    17    18    1
    14    18    19    1
    15    19    20    1
    16    20    21   ar
    17    21    22   ar
    18    22    23   ar
    19    23    24   ar
    20    24    25   ar
    21    25    26    1
    22    26    27    1
    23    26    28    1
    24     4     5    1
    25     5     6    1
    26     6     7    1
    27    15    10   ar
    28     6     1    1
    29    28    17    1
    30    25    20   ar
    31    27    29    1
    32     7     8    1
@<TRIPOS>MOLECULE
*****
 29 32 0 0 0
SMALL
GASTEIGER

@<TRIPOS>ATOM
      1 C         140.5225  140.6920  167.0704 C.3     1  UNL1        0.0517
      2 C         141.0840  140.9106  165.6967 C.3     1  UNL1        0.0241
      3 C         140.4384  140.2585  164.5101 C.3     1  UNL1        0.0726
      4 N         139.2314  139.3878  164.6971 N.3     1  UNL1       -0.2706
      5 C         138.6699  139.1692  166.0709 C.3     1  UNL1        0.1020
      6 C         139.3154  139.8213  167.2574 C.3     1  UNL1        0.1304
      7 O         138.7540  139.6028  168.6311 O.3     1  UNL1       -0.3827
      8 H         139.2851  140.0917  169.2791 H       1  UNL1        0.2104
      9 C         142.7304  139.2872  168.5373 C.3     1  UNL1        0.0307
     10 C         142.2720  140.6417  168.9905 C.ar    1  UNL1       -0.0257
     11 C         142.9175  141.2937  170.1771 C.ar    1  UNL1       -0.0046
     12 C         142.4591  142.6481  170.6303 C.ar    1  UNL1       -0.0003
     13 C         141.3552  143.3505  169.8968 C.ar    1  UNL1       -0.0003
     14 C         140.7096  142.6985  168.7102 C.ar    1  UNL1       -0.0045
     15 C         141.1680  141.3441  168.2570 C.ar    1  UNL1       -0.0240
     16 C         138.5858  138.7357  163.5106 C.3     1  UNL1        0.0722
     17 C         138.6076  139.4187  162.1753 C.3     1  UNL1        0.0191
     18 C         139.0527  138.5732  161.0189 C.3     1  UNL1        0.0062
     19 C         139.1815  138.9572  159.5747 C.3     1  UNL1        0.0277
     20 C         138.8970  140.2813  158.9299 C.ar    1  UNL1       -0.0063
     21 C         139.1577  140.2391  157.4533 C.ar    1  UNL1       -0.0014
     22 C         138.9347  141.4643  156.6171 C.ar    1  UNL1        0.0203
     23 C         138.4512  142.7316  157.2575 C.ar    1  UNL1        0.0985
     24 N         138.1906  142.7738  158.7341 N.ar    1  UNL1       -0.2461
     25 C         138.4135  141.5486  159.5702 C.ar    1  UNL1        0.0817
     26 C         138.0950  141.8048  161.0135 C.3     1  UNL1        0.1498
     27 O         137.6284  143.1923  161.3407 O.3     1  UNL1       -0.3785
     28 C         138.1814  140.8569  162.1729 C.3     1  UNL1        0.0368
     29 H         137.6064  143.7254  160.5306 H       1  UNL1        0.2108
@<TRIPOS>BOND
     1     9    10    1
     2    10    11   ar
     3    11    12   ar
     4    12    13   ar
     5    13    14   ar
     6    14    15   ar
     7     1    15    1
     8     1     2    1
     9     2     3    1
    10     3     4    1
    11     4    16    1
    12    17    16    1
    13    17    18    1
    14    18    19    1
    15    19    20    1
    16    20    21   ar
    17    21    22   ar
    18    22    23   ar
    19    23    24   ar
    20    24    25   ar
    21    25    26    1
    22    26    27    1
    23    26    28    1
    24     4     5    1
    25     5     6    1
    26     6     7    1
    27    15    10   ar
    28     6     1    1
    29    28    17    1
    30    25    20   ar
    31    27    29    1
    32     7     8    1
@<TRIPOS>MOLECULE
*****
 29 32 0 0 0
SMALL
GASTEIGER

@<TRIPOS>ATOM
      1 C         140.1652  142.3812  166.6758 C.3     1  UNL1        0.0517
      2 C         139.8576  143.5577  165.7975 C.3     1  UNL1        0.0241
      3 C         138.9273  143.4002  164.6314 C.3     1  UNL1        0.0726
      4 N         138.3046  142.0663  164.3436 N.3     1  UNL1       -0.2706
      5 C         138.6122  140.8898  165.2219 C.3     1  UNL1        0.1020
      6 C         139.5425  141.0473  166.3880 C.3     1  UNL1        0.1304
      7 O         139.8501  139.8708  167.2663 O.3     1  UNL1       -0.3827
      8 H         140.4630  140.1423  167.9674 H       1  UNL1        0.2104
      9 C         143.0593  141.6423  166.3962 C.3     1  UNL1        0.0307
     10 C         142.5426  142.1692  167.7021 C.ar    1  UNL1       -0.0257
     11 C         143.4729  142.3267  168.8681 C.ar    1  UNL1       -0.0046
     12 C         142.9561  142.8536  170.1740 C.ar    1  UNL1       -0.0003
     13 C         141.5091  143.2231  170.3138 C.ar    1  UNL1       -0.0003
     14 C         140.5788  143.0656  169.1478 C.ar    1  UNL1       -0.0045
     15 C         141.0955  142.5387  167.8419 C.ar    1  UNL1       -0.0240
     16 C         137.3743  141.9088  163.1776 C.3     1  UNL1        0.0722
     17 C         137.8938  141.3944  161.8678 C.3     1  UNL1        0.0191
     18 C         138.1239  142.4298  160.8071 C.3     1  UNL1        0.0062
     19 C         138.6316  142.2390  159.4086 C.3     1  UNL1        0.0277
     20 C         139.0345  140.9659  158.7252 C.ar    1  UNL1       -0.0063
     21 C         139.4870  141.2189  157.3177 C.ar    1  UNL1       -0.0014
     22 C         139.9343  140.0750  156.4567 C.ar    1  UNL1        0.0203
     23 C         139.9290  138.6781  157.0032 C.ar    1  UNL1        0.0985
     24 N         139.4765  138.4251  158.4108 N.ar    1  UNL1       -0.2461
     25 C         139.0292  139.5690  159.2718 C.ar    1  UNL1        0.0817
     26 C         138.6198  139.1003  160.6366 C.3     1  UNL1        0.1498
     27 O         138.7303  137.6240  160.8780 O.3     1  UNL1       -0.3785
     28 C         138.1145  139.9126  161.7920 C.3     1  UNL1        0.0368
     29 H         139.0636  137.1895  160.0773 H       1  UNL1        0.2108
@<TRIPOS>BOND
     1     9    10    1
     2    10    11   ar
     3    11    12   ar
     4    12    13   ar
     5    13    14   ar
     6    14    15   ar
     7     1    15    1
     8     1     2    1
     9     2     3    1
    10     3     4    1
    11     4    16    1
    12    17    16    1
    13    17    18    1
    14    18    19    1
    15    19    20    1
    16    20    21   ar
    17    21    22   ar
    18    22    23   ar
    19    23    24   ar
    20    24    25   ar
    21    25    26    1
    22    26    27    1
    23    26    28    1
    24     4     5    1
    25     5     6    1
    26     6     7    1
    27    15    10   ar
    28     6     1    1
    29    28    17    1
    30    25    20   ar
    31    27    29    1
    32     7     8    1
@<TRIPOS>MOLECULE
*****
 29 32 0 0 0
SMALL
GASTEIGER

@<TRIPOS>ATOM
      1 C         140.2333  141.3460  166.8309 C.3     1  UNL1        0.0517
      2 C         140.4105  141.9940  165.4898 C.3     1  UNL1        0.0241
      3 C         139.6491  141.4820  164.3030 C.3     1  UNL1        0.0726
      4 N         138.7106  140.3222  164.4576 N.3     1  UNL1       -0.2706
      5 C         138.5334  139.6742  165.7988 C.3     1  UNL1        0.1020
      6 C         139.2948  140.1862  166.9855 C.3     1  UNL1        0.1304
      7 O         139.1177  139.5382  168.3267 O.3     1  UNL1       -0.3827
      8 H         139.6779  139.9871  168.9791 H       1  UNL1        0.2104
      9 C         142.7870  140.0104  167.6647 C.3     1  UNL1        0.0307
     10 C         142.2716  141.1902  168.4346 C.ar    1  UNL1       -0.0257
     11 C         143.0329  141.7020  169.6212 C.ar    1  UNL1       -0.0046
     12 C         142.5175  142.8817  170.3910 C.ar    1  UNL1       -0.0003
     13 C         141.2407  143.5495  169.9741 C.ar    1  UNL1       -0.0003
     14 C         140.4793  143.0377  168.7875 C.ar    1  UNL1       -0.0045
     15 C         140.9947  141.8580  168.0177 C.ar    1  UNL1       -0.0240
     16 C         137.9492  139.8102  163.2709 C.3     1  UNL1        0.0722
     17 C         138.6606  139.5601  161.9743 C.3     1  UNL1        0.0191
     18 C         138.0624  140.2180  160.7663 C.3     1  UNL1        0.0062
     19 C         138.5321  140.1634  159.3427 C.3     1  UNL1        0.0277
     20 C         139.7159  139.4375  158.7756 C.ar    1  UNL1       -0.0063
     21 C         139.8287  139.6463  157.2945 C.ar    1  UNL1       -0.0014
     22 C         140.9482  139.0044  156.5298 C.ar    1  UNL1        0.0203
     23 C         141.9547  138.1537  157.2462 C.ar    1  UNL1        0.0985
     24 N         141.8419  137.9450  158.7273 N.ar    1  UNL1       -0.2461
     25 C         140.7225  138.5869  159.4920 C.ar    1  UNL1        0.0817
     26 C         140.7938  138.2521  160.9524 C.3     1  UNL1        0.1498
     27 O         141.9335  137.3671  161.3623 O.3     1  UNL1       -0.3785
     28 C         139.8763  138.6852  162.0572 C.3     1  UNL1        0.0368
     29 H         142.4655  137.1431  160.5827 H       1  UNL1        0.2108
@<TRIPOS>BOND
     1     9    10    1
     2    10    11   ar
     3    11    12   ar
     4    12    13   ar
     5    13    14   ar
     6    14    15   ar
     7     1    15    1
     8     1     2    1
     9     2     3    1
    10     3     4    1
    11     4    16    1
    12    17    16    1
    13    17    18    1
    14    18    19    1
    15    19    20    1
    16    20    21   ar
    17    21    22   ar
    18    22    23   ar
    19    23    24   ar
    20    24    25   ar
    21    25    26    1
    22    26    27    1
    23    26    28    1
    24     4     5    1
    25     5     6    1
    26     6     7    1
    27    15    10   ar
    28     6     1    1
    29    28    17    1
    30    25    20   ar
    31    27    29    1
    32     7     8    1
@<TRIPOS>MOLECULE
*****
 29 32 0 0 0
SMALL
GASTEIGER

@<TRIPOS>ATOM
      1 C         141.5348  136.6057  156.2030 C.3     1  UNL1        0.0517
      2 C         142.7858  137.1803  156.7988 C.3     1  UNL1        0.0241
      3 C         142.6978  138.3075  157.7847 C.3     1  UNL1        0.0726
      4 N         141.3589  138.8600  158.1747 N.3     1  UNL1       -0.2706
      5 C         140.1080  138.2854  157.5788 C.3     1  UNL1        0.1020
      6 C         140.1960  137.1583  156.5930 C.3     1  UNL1        0.1304
      7 O         138.9450  136.5837  155.9971 O.3     1  UNL1       -0.3827
      8 H         139.1776  135.8686  155.3844 H       1  UNL1        0.2104
      9 C         141.6809  137.1912  153.2643 C.3     1  UNL1        0.0307
     10 C         141.6958  135.7713  153.7478 C.ar    1  UNL1       -0.0257
     11 C         141.7837  134.6442  152.7620 C.ar    1  UNL1       -0.0046
     12 C         141.7986  133.2244  153.2455 C.ar    1  UNL1       -0.0003
     13 C         141.7256  132.9317  154.7148 C.ar    1  UNL1       -0.0003
     14 C         141.6377  134.0587  155.7007 C.ar    1  UNL1       -0.0045
     15 C         141.6228  135.4786  155.2172 C.ar    1  UNL1       -0.0240
     16 C         141.2710  139.9871  159.1604 C.3     1  UNL1        0.0722
     17 C         140.6876  139.7491  160.5217 C.3     1  UNL1        0.0191
     18 C         139.7765  140.8239  161.0363 C.3     1  UNL1        0.0062
     19 C         139.0453  140.8828  162.3446 C.3     1  UNL1        0.0277
     20 C         139.0444  139.8815  163.4616 C.ar    1  UNL1       -0.0063
     21 C         138.1741  140.3292  164.5982 C.ar    1  UNL1       -0.0014
     22 C         138.0340  139.4693  165.8193 C.ar    1  UNL1        0.0203
     23 C         138.7643  138.1618  165.9037 C.ar    1  UNL1        0.0985
     24 N         139.6347  137.7142  164.7670 N.ar    1  UNL1       -0.2461
     25 C         139.7747  138.5740  163.5460 C.ar    1  UNL1        0.0817
     26 C         140.6862  137.9449  162.5343 C.3     1  UNL1        0.1498
     27 O         141.2683  136.6172  162.9195 O.3     1  UNL1       -0.3785
     28 C         141.0925  138.4678  161.1883 C.3     1  UNL1        0.0368
     29 H         140.9480  136.3670  163.8002 H       1  UNL1        0.2108
@<TRIPOS>BOND
     1     9    10    1
     2    10    11   ar
     3    11    12   ar
     4    12    13   ar
     5    13    14   ar
     6    14    15   ar
     7     1    15    1
     8     1     2    1
     9     2     3    1
    10     3     4    1
    11     4    16    1
    12    17    16    1
    13    17    18    1
    14    18    19    1
    15    19    20    1
    16    20    21   ar
    17    21    22   ar
    18    22    23   ar
    19    23    24   ar
    20    24    25   ar
    21    25    26    1
    22    26    27    1
    23    26    28    1
    24     4     5    1
    25     5     6    1
    26     6     7    1
    27    15    10   ar
    28     6     1    1
    29    28    17    1
    30    25    20   ar
    31    27    29    1
    32     7     8    1
@<TRIPOS>MOLECULE
*****
 29 32 0 0 0
SMALL
GASTEIGER

@<TRIPOS>ATOM
      1 C         142.4092  140.2795  167.1651 C.3     1  UNL1        0.0517
      2 C         142.9799  138.8969  167.0526 C.3     1  UNL1        0.0241
      3 C         143.5770  138.4351  165.7562 C.3     1  UNL1        0.0726
      4 N         143.6033  139.3560  164.5725 N.3     1  UNL1       -0.2706
      5 C         143.0325  140.7387  164.6851 C.3     1  UNL1        0.1020
      6 C         142.4355  141.2004  165.9814 C.3     1  UNL1        0.1304
      7 O         141.8648  142.5830  166.0940 O.3     1  UNL1       -0.3827
      8 H         141.5224  142.7194  166.9912 H       1  UNL1        0.2104
      9 C         139.4736  139.9283  167.6738 C.3     1  UNL1        0.0307
     10 C         140.3444  140.5656  168.7158 C.ar    1  UNL1       -0.0257
     11 C         139.7473  141.0273  170.0120 C.ar    1  UNL1       -0.0046
     12 C         140.6180  141.6646  171.0539 C.ar    1  UNL1       -0.0003
     13 C         142.0859  141.8402  170.7996 C.ar    1  UNL1       -0.0003
     14 C         142.6829  141.3785  169.5034 C.ar    1  UNL1       -0.0045
     15 C         141.8122  140.7412  168.4614 C.ar    1  UNL1       -0.0240
     16 C         144.2003  138.8944  163.2762 C.3     1  UNL1        0.0722
     17 C         143.3835  138.9322  162.0187 C.3     1  UNL1        0.0191
     18 C         144.0526  139.5493  160.8264 C.3     1  UNL1        0.0062
     19 C         143.5090  139.7346  159.4407 C.3     1  UNL1        0.0277
     20 C         142.1621  139.3485  158.9050 C.ar    1  UNL1       -0.0063
     21 C         142.0227  139.7147  157.4571 C.ar    1  UNL1       -0.0014
     22 C         140.7474  139.4141  156.7269 C.ar    1  UNL1        0.0203
     23 C         139.6115  138.7475  157.4447 C.ar    1  UNL1        0.0985
     24 N         139.7508  138.3813  158.8926 N.ar    1  UNL1       -0.2461
     25 C         141.0262  138.6819  159.6227 C.ar    1  UNL1        0.0817
     26 C         140.9566  138.2366  161.0534 C.3     1  UNL1        0.1498
     27 O         139.6673  137.5951  161.4734 O.3     1  UNL1       -0.3785
     28 C         142.0056  138.3480  162.1198 C.3     1  UNL1        0.0368
     29 H         139.0580  137.5698  160.7190 H       1  UNL1        0.2108
@<TRIPOS>BOND
     1     9    10    1
     2    10    11   ar
     3    11    12   ar
     4    12    13   ar
     5    13    14   ar
     6    14    15   ar
     7     1    15    1
     8     1     2    1
     9     2     3    1
    10     3     4    1
    11     4    16    1
    12    17    16    1
    13    17    18    1
    14    18    19    1
    15    19    20    1
    16    20    21   ar
    17    21    22   ar
    18    22    23   ar
    19    23    24   ar
    20    24    25   ar
    21    25    26    1
    22    26    27    1
    23    26    28    1
    24     4     5    1
    25     5     6    1
    26     6     7    1
    27    15    10   ar
    28     6     1    1
    29    28    17    1
    30    25    20   ar
    31    27    29    1
    32     7     8    1
@<TRIPOS>MOLECULE
*****
 29 32 0 0 0
SMALL
GASTEIGER

@<TRIPOS>ATOM
      1 C         142.2712  135.9643  155.4442 C.3     1  UNL1        0.0517
      2 C         140.9632  136.4665  155.9799 C.3     1  UNL1        0.0241
      3 C         140.8991  137.7902  156.6825 C.3     1  UNL1        0.0726
      4 N         142.1429  138.6117  156.8495 N.3     1  UNL1       -0.2706
      5 C         143.4510  138.1095  156.3138 C.3     1  UNL1        0.1020
      6 C         143.5151  136.7858  155.6112 C.3     1  UNL1        0.1304
      7 O         144.8231  136.2836  155.0755 O.3     1  UNL1       -0.3827
      8 H         144.6897  135.4202  154.6539 H       1  UNL1        0.2104
      9 C         143.0787  133.5017  156.9552 C.3     1  UNL1        0.0307
     10 C         142.7391  133.4092  155.4970 C.ar    1  UNL1       -0.0257
     11 C         142.8033  132.0856  154.7944 C.ar    1  UNL1       -0.0046
     12 C         142.4637  131.9932  153.3363 C.ar    1  UNL1       -0.0003
     13 C         142.0599  133.2245  152.5808 C.ar    1  UNL1       -0.0003
     14 C         141.9957  134.5482  153.2834 C.ar    1  UNL1       -0.0045
     15 C         142.3353  134.6406  154.7415 C.ar    1  UNL1       -0.0240
     16 C         142.0788  139.9354  157.5521 C.3     1  UNL1        0.0722
     17 C         142.7563  140.1141  158.8785 C.3     1  UNL1        0.0191
     18 C         143.3871  141.4549  159.1116 C.3     1  UNL1        0.0062
     19 C         144.1308  141.9410  160.3202 C.3     1  UNL1        0.0277
     20 C         144.4274  141.2066  161.5940 C.ar    1  UNL1       -0.0063
     21 C         145.2010  142.0623  162.5527 C.ar    1  UNL1       -0.0014
     22 C         145.6007  141.5160  163.8912 C.ar    1  UNL1        0.0203
     23 C         145.2268  140.1139  164.2711 C.ar    1  UNL1        0.0985
     24 N         144.4532  139.2582  163.3124 N.ar    1  UNL1       -0.2461
     25 C         144.0534  139.8045  161.9739 C.ar    1  UNL1        0.0817
     26 C         143.2906  138.7906  161.1738 C.3     1  UNL1        0.1498
     27 O         143.0768  137.4634  161.8393 O.3     1  UNL1       -0.3785
     28 C         142.7133  138.9283  159.7962 C.3     1  UNL1        0.0368
     29 H         143.4842  137.4738  162.7195 H       1  UNL1        0.2108
@<TRIPOS>BOND
     1     9    10    1
     2    10    11   ar
     3    11    12   ar
     4    12    13   ar
     5    13    14   ar
     6    14    15   ar
     7     1    15    1
     8     1     2    1
     9     2     3    1
    10     3     4    1
    11     4    16    1
    12    17    16    1
    13    17    18    1
    14    18    19    1
    15    19    20    1
    16    20    21   ar
    17    21    22   ar
    18    22    23   ar
    19    23    24   ar
    20    24    25   ar
    21    25    26    1
    22    26    27    1
    23    26    28    1
    24     4     5    1
    25     5     6    1
    26     6     7    1
    27    15    10   ar
    28     6     1    1
    29    28    17    1
    30    25    20   ar
    31    27    29    1
    32     7     8    1
