@<TRIPOS>MOLECULE
*****
 34 37 0 0 0
SMALL
GASTEIGER

@<TRIPOS>ATOM
      1 C         139.7932  142.4785  163.6542 C.ar    1  UNL1        0.0729
      2 C         140.7766  143.1667  164.5538 C.ar    1  UNL1        0.1048
      3 N         141.0869  142.5924  165.9043 N.ar    1  UNL1       -0.2290
      4 C         140.4138  141.3300  166.3552 C.ar    1  UNL1        0.1331
      5 C         139.4304  140.6419  165.4556 C.ar    1  UNL1        0.0488
      6 C         139.1201  141.2161  164.1051 C.ar    1  UNL1        0.0103
      7 N         140.7241  140.7558  167.7058 N.pl3   1  UNL1       -0.2906
      8 C         141.8395  139.8047  168.0244 C.3     1  UNL1        0.0948
      9 C         141.7783  139.4929  169.4903 C.3     1  UNL1        0.0524
     10 C         140.6251  140.2513  170.0777 C.3     1  UNL1        0.1319
     11 O         140.1984  140.2325  171.5157 O.3     1  UNL1       -0.3827
     12 C         139.9736  141.0318  168.9748 C.3     1  UNL1        0.1213
     13 H         140.7864  139.6486  172.0198 H       1  UNL1        0.2104
     14 C         138.7573  139.3795  165.9065 C.ar    1  UNL1        0.0781
     15 C         138.9913  138.0074  165.3474 C.ar    1  UNL1        0.0410
     16 C         138.1106  137.0474  166.0910 C.ar    1  UNL1        0.1214
     17 N         137.3323  137.8263  167.1096 N.ar    1  UNL1       -0.1711
     18 N         137.7320  139.2675  166.9956 N.ar    1  UNL1       -0.2756
     19 H         137.3827  140.0097  167.5400 H       1  UNL1        0.1889
     20 O         138.1246  143.6256  162.0263 O.2     1  UNL1       -0.2698
     21 C         139.4829  143.0528  162.3036 C.2     1  UNL1        0.2510
     22 N         140.5308  143.0542  161.2304 N.am    1  UNL1       -0.2803
     23 H         141.4223  142.6783  161.4124 H       1  UNL1        0.1552
     24 C         140.2205  143.6285  159.8798 C.ar    1  UNL1        0.0507
     25 C         140.5978  145.0451  159.5624 C.ar    1  UNL1        0.0178
     26 C         140.2875  145.6192  158.2119 C.ar    1  UNL1        0.0384
     27 C         139.5998  144.7768  157.1788 C.ar    1  UNL1        0.1453
     28 C         139.2224  143.3602  157.4962 C.ar    1  UNL1        0.0384
     29 C         139.5328  142.7860  158.8467 C.ar    1  UNL1        0.0178
     30 O         139.2895  145.3511  155.8282 O.3     1  UNL1       -0.4184
     31 C         139.8086  146.7072  155.4525 C.3     1  UNL1        0.4893
     32 F         140.3278  148.0635  155.0769 F       1  UNL1       -0.1486
     33 F         138.5998  147.3420  156.0736 F       1  UNL1       -0.1486
     34 CL        141.0175  146.0725  154.8315 Cl      1  UNL1        0.0004
@<TRIPOS>BOND
     1    20    21    2
     2    21    22   am
     3    22    24    1
     4    24    25   ar
     5    25    26   ar
     6    26    27   ar
     7    27    30    1
     8    30    31    1
     9    31    32    1
    10    31    33    1
    11    31    34    1
    12    27    28   ar
    13    28    29   ar
    14    21     1    1
    15     1     2   ar
    16     2     3   ar
    17     3     4   ar
    18     4     7    1
    19     7     8    1
    20     8     9    1
    21     9    10    1
    22    10    11    1
    23    10    12    1
    24     4     5   ar
    25     5    14    1
    26    14    15   ar
    27    15    16   ar
    28    16    17   ar
    29    17    18   ar
    30     5     6   ar
    31    29    24   ar
    32     6     1   ar
    33    12     7    1
    34    18    14   ar
    35    22    23    1
    36    11    13    1
    37    18    19    1
@<TRIPOS>MOLECULE
*****
 34 37 0 0 0
SMALL
GASTEIGER

@<TRIPOS>ATOM
      1 C         140.8826  138.3053  160.7089 C.ar    1  UNL1        0.0729
      2 C         139.5128  138.7055  160.2471 C.ar    1  UNL1        0.1048
      3 N         139.2060  138.7742  158.7805 N.ar    1  UNL1       -0.2290
      4 C         140.2692  138.4427  157.7755 C.ar    1  UNL1        0.1331
      5 C         141.6390  138.0424  158.2373 C.ar    1  UNL1        0.0488
      6 C         141.9458  137.9737  159.7039 C.ar    1  UNL1        0.0103
      7 N         139.9624  138.5114  156.3088 N.pl3   1  UNL1       -0.2906
      8 C         139.4027  137.3993  155.4721 C.3     1  UNL1        0.0948
      9 C         139.2558  137.9048  154.0675 C.3     1  UNL1        0.0524
     10 C         139.7246  139.3293  154.0361 C.3     1  UNL1        0.1319
     11 O         139.7520  140.2222  152.8311 O.3     1  UNL1       -0.3827
     12 C         140.1613  139.7042  155.4214 C.3     1  UNL1        0.1213
     13 H         139.4167  139.7367  152.0613 H       1  UNL1        0.2104
     14 C         142.7022  137.7109  157.2323 C.ar    1  UNL1        0.0781
     15 C         142.9069  136.3798  156.5720 C.ar    1  UNL1        0.0410
     16 C         144.0785  136.4985  155.6429 C.ar    1  UNL1        0.1214
     17 N         144.5978  137.9031  155.7289 N.ar    1  UNL1       -0.1711
     18 N         143.7472  138.6524  156.7113 N.ar    1  UNL1       -0.2756
     19 H         143.8558  139.5964  156.9688 H       1  UNL1        0.1889
     20 O         140.9486  136.9646  162.9334 O.2     1  UNL1       -0.2698
     21 C         141.1895  138.2365  162.1756 C.2     1  UNL1        0.2510
     22 N         141.7371  139.4397  162.8844 N.am    1  UNL1       -0.2803
     23 H         141.8952  140.2744  162.3870 H       1  UNL1        0.1552
     24 C         142.0439  139.3709  164.3512 C.ar    1  UNL1        0.0507
     25 C         143.3423  138.7835  164.8191 C.ar    1  UNL1        0.0178
     26 C         143.6491  138.7148  166.2857 C.ar    1  UNL1        0.0384
     27 C         142.6574  139.2335  167.2845 C.ar    1  UNL1        0.1453
     28 C         141.3590  139.8210  166.8166 C.ar    1  UNL1        0.0384
     29 C         141.0522  139.8897  165.3499 C.ar    1  UNL1        0.0178
     30 O         142.9642  139.1648  168.7512 O.3     1  UNL1       -0.4184
     31 C         142.2844  140.1025  169.7044 C.3     1  UNL1        0.4893
     32 F         141.6045  141.0402  170.6576 F       1  UNL1       -0.1486
     33 F         141.3195  139.0183  170.0828 F       1  UNL1       -0.1486
     34 CL        143.2493  141.1867  169.3259 Cl      1  UNL1        0.0004
@<TRIPOS>BOND
     1    20    21    2
     2    21    22   am
     3    22    24    1
     4    24    25   ar
     5    25    26   ar
     6    26    27   ar
     7    27    30    1
     8    30    31    1
     9    31    32    1
    10    31    33    1
    11    31    34    1
    12    27    28   ar
    13    28    29   ar
    14    21     1    1
    15     1     2   ar
    16     2     3   ar
    17     3     4   ar
    18     4     7    1
    19     7     8    1
    20     8     9    1
    21     9    10    1
    22    10    11    1
    23    10    12    1
    24     4     5   ar
    25     5    14    1
    26    14    15   ar
    27    15    16   ar
    28    16    17   ar
    29    17    18   ar
    30     5     6   ar
    31    29    24   ar
    32     6     1   ar
    33    12     7    1
    34    18    14   ar
    35    22    23    1
    36    11    13    1
    37    18    19    1
@<TRIPOS>MOLECULE
*****
 34 37 0 0 0
SMALL
GASTEIGER

@<TRIPOS>ATOM
      1 C         141.5576  138.1989  161.5829 C.ar    1  UNL1        0.0729
      2 C         142.9024  137.6640  161.1886 C.ar    1  UNL1        0.1048
      3 N         143.2835  137.5871  159.7399 N.ar    1  UNL1       -0.2290
      4 C         142.3199  138.0452  158.6855 C.ar    1  UNL1        0.1331
      5 C         140.9752  138.5801  159.0798 C.ar    1  UNL1        0.0488
      6 C         140.5940  138.6570  160.5285 C.ar    1  UNL1        0.0103
      7 N         142.7011  137.9683  157.2368 N.pl3   1  UNL1       -0.2906
      8 C         143.3806  139.0464  156.4454 C.3     1  UNL1        0.0948
      9 C         143.5692  138.5443  155.0446 C.3     1  UNL1        0.0524
     10 C         143.0063  137.1558  154.9702 C.3     1  UNL1        0.1319
     11 O         142.9839  136.2775  153.7544 O.3     1  UNL1       -0.3827
     12 C         142.4698  136.7999  156.3250 C.3     1  UNL1        0.1213
     13 H         143.3933  136.7455  153.0099 H       1  UNL1        0.2104
     14 C         140.0116  139.0381  158.0255 C.ar    1  UNL1        0.0781
     15 C         139.6354  140.4604  157.7327 C.ar    1  UNL1        0.0410
     16 C         138.6464  140.4556  156.6050 C.ar    1  UNL1        0.1214
     17 N         138.4112  139.0304  156.2008 N.ar    1  UNL1       -0.1711
     18 N         139.2550  138.1543  157.0786 N.ar    1  UNL1       -0.2756
     19 H         139.3037  137.1718  157.0402 H       1  UNL1        0.1889
     20 O         141.2589  137.0519  163.8949 O.2     1  UNL1       -0.2698
     21 C         141.1764  138.2758  163.0317 C.2     1  UNL1        0.2510
     22 N         140.7127  139.5766  163.6172 N.am    1  UNL1       -0.2803
     23 H         140.6585  140.3799  163.0506 H       1  UNL1        0.1552
     24 C         140.3315  139.6535  165.0659 C.ar    1  UNL1        0.0507
     25 C         138.9555  139.2455  165.5021 C.ar    1  UNL1        0.0178
     26 C         138.5744  139.3224  166.9508 C.ar    1  UNL1        0.0384
     27 C         139.5692  139.8073  167.9633 C.ar    1  UNL1        0.1453
     28 C         140.9451  140.2153  167.5272 C.ar    1  UNL1        0.0384
     29 C         141.3263  140.1384  166.0785 C.ar    1  UNL1        0.0178
     30 O         139.1880  139.8842  169.4121 O.3     1  UNL1       -0.4184
     31 C         140.1221  140.5162  170.4009 C.3     1  UNL1        0.4893
     32 F         141.0564  141.1483  171.3898 F       1  UNL1       -0.1486
     33 F         140.8249  139.2028  170.5765 F       1  UNL1       -0.1486
     34 CL        139.4194  141.8297  170.2253 Cl      1  UNL1        0.0004
@<TRIPOS>BOND
     1    20    21    2
     2    21    22   am
     3    22    24    1
     4    24    25   ar
     5    25    26   ar
     6    26    27   ar
     7    27    30    1
     8    30    31    1
     9    31    32    1
    10    31    33    1
    11    31    34    1
    12    27    28   ar
    13    28    29   ar
    14    21     1    1
    15     1     2   ar
    16     2     3   ar
    17     3     4   ar
    18     4     7    1
    19     7     8    1
    20     8     9    1
    21     9    10    1
    22    10    11    1
    23    10    12    1
    24     4     5   ar
    25     5    14    1
    26    14    15   ar
    27    15    16   ar
    28    16    17   ar
    29    17    18   ar
    30     5     6   ar
    31    29    24   ar
    32     6     1   ar
    33    12     7    1
    34    18    14   ar
    35    22    23    1
    36    11    13    1
    37    18    19    1
@<TRIPOS>MOLECULE
*****
 34 37 0 0 0
SMALL
GASTEIGER

@<TRIPOS>ATOM
      1 C         141.1702  144.5062  161.5340 C.ar    1  UNL1        0.0729
      2 C         140.1411  145.5181  161.1254 C.ar    1  UNL1        0.1048
      3 N         139.8768  145.7738  159.6712 N.ar    1  UNL1       -0.2290
      4 C         140.6416  145.0176  158.6256 C.ar    1  UNL1        0.1331
      5 C         141.6706  144.0056  159.0342 C.ar    1  UNL1        0.0488
      6 C         141.9349  143.7500  160.4884 C.ar    1  UNL1        0.0103
      7 N         140.3772  145.2733  157.1714 N.pl3   1  UNL1       -0.2906
      8 C         141.1069  146.2537  156.3017 C.3     1  UNL1        0.0948
      9 C         140.5175  146.1799  154.9243 C.3     1  UNL1        0.0524
     10 C         139.4234  145.1538  154.9428 C.3     1  UNL1        0.1319
     11 O         138.5665  144.7576  153.7771 O.3     1  UNL1       -0.3827
     12 C         139.3367  144.5935  156.3315 C.3     1  UNL1        0.1213
     13 H         138.8267  145.2699  152.9956 H       1  UNL1        0.2104
     14 C         142.4353  143.2494  157.9886 C.ar    1  UNL1        0.0781
     15 C         142.0130  141.9612  157.3466 C.ar    1  UNL1        0.0410
     16 C         143.0733  141.5642  156.3627 C.ar    1  UNL1        0.1214
     17 N         144.1510  142.6070  156.3966 N.ar    1  UNL1       -0.1711
     18 N         143.7567  143.6485  157.4015 N.ar    1  UNL1       -0.2756
     19 H         144.2743  144.4528  157.6347 H       1  UNL1        0.1889
     20 O         141.8754  145.3738  163.8792 O.2     1  UNL1       -0.2698
     21 C         141.4345  144.2505  162.9883 C.2     1  UNL1        0.2510
     22 N         141.2580  142.8715  163.5515 N.am    1  UNL1       -0.2803
     23 H         140.9687  142.1343  162.9667 H       1  UNL1        0.1552
     24 C         141.5224  142.6158  165.0057 C.ar    1  UNL1        0.0507
     25 C         140.3789  142.5356  165.9731 C.ar    1  UNL1        0.0178
     26 C         140.6433  142.2799  167.4273 C.ar    1  UNL1        0.0384
     27 C         142.0512  142.1044  167.9141 C.ar    1  UNL1        0.1453
     28 C         143.1947  142.1846  166.9467 C.ar    1  UNL1        0.0384
     29 C         142.9303  142.4403  165.4925 C.ar    1  UNL1        0.0178
     30 O         142.3155  141.8487  169.3683 O.3     1  UNL1       -0.4184
     31 C         142.9698  142.9048  170.2087 C.3     1  UNL1        0.4893
     32 F         143.6243  143.9611  171.0492 F       1  UNL1       -0.1486
     33 F         144.2833  142.1914  170.0827 F       1  UNL1       -0.1486
     34 CL        141.6564  143.6183  170.3348 Cl      1  UNL1        0.0004
@<TRIPOS>BOND
     1    20    21    2
     2    21    22   am
     3    22    24    1
     4    24    25   ar
     5    25    26   ar
     6    26    27   ar
     7    27    30    1
     8    30    31    1
     9    31    32    1
    10    31    33    1
    11    31    34    1
    12    27    28   ar
    13    28    29   ar
    14    21     1    1
    15     1     2   ar
    16     2     3   ar
    17     3     4   ar
    18     4     7    1
    19     7     8    1
    20     8     9    1
    21     9    10    1
    22    10    11    1
    23    10    12    1
    24     4     5   ar
    25     5    14    1
    26    14    15   ar
    27    15    16   ar
    28    16    17   ar
    29    17    18   ar
    30     5     6   ar
    31    29    24   ar
    32     6     1   ar
    33    12     7    1
    34    18    14   ar
    35    22    23    1
    36    11    13    1
    37    18    19    1
@<TRIPOS>MOLECULE
*****
 34 37 0 0 0
SMALL
GASTEIGER

@<TRIPOS>ATOM
      1 C         143.8395  141.9482  158.3450 C.ar    1  UNL1        0.0729
      2 C         142.4393  141.5115  158.0306 C.ar    1  UNL1        0.1048
      3 N         141.3373  141.7578  159.0179 N.ar    1  UNL1       -0.2290
      4 C         141.6355  142.4408  160.3197 C.ar    1  UNL1        0.1331
      5 C         143.0356  142.8774  160.6342 C.ar    1  UNL1        0.0488
      6 C         144.1376  142.6311  159.6468 C.ar    1  UNL1        0.0103
      7 N         140.5334  142.6871  161.3071 N.pl3   1  UNL1       -0.2906
      8 C         140.2956  141.9182  162.5729 C.3     1  UNL1        0.0948
      9 C         139.0909  142.5013  163.2501 C.3     1  UNL1        0.0524
     10 C         138.5841  143.6306  162.4028 C.3     1  UNL1        0.1319
     11 O         137.3947  144.4937  162.7035 O.3     1  UNL1       -0.3827
     12 C         139.4756  143.7454  161.2019 C.3     1  UNL1        0.1213
     13 H         136.9933  144.2109  163.5401 H       1  UNL1        0.2104
     14 C         143.3337  143.5604  161.9360 C.ar    1  UNL1        0.0781
     15 C         143.9161  142.9138  163.1577 C.ar    1  UNL1        0.0410
     16 C         144.0441  143.9637  164.2214 C.ar    1  UNL1        0.1214
     17 N         143.5408  145.2591  163.6571 N.ar    1  UNL1       -0.1711
     18 N         143.1018  145.0098  162.2446 N.ar    1  UNL1       -0.2756
     19 H         142.7271  145.6800  161.6283 H       1  UNL1        0.1889
     20 O         145.2289  140.3069  156.8870 O.2     1  UNL1       -0.2698
     21 C         144.9415  141.7019  157.3577 C.2     1  UNL1        0.2510
     22 N         145.7562  142.8505  156.8410 N.am    1  UNL1       -0.2803
     23 H         145.5675  143.7660  157.1499 H       1  UNL1        0.1552
     24 C         146.8583  142.6042  155.8536 C.ar    1  UNL1        0.0507
     25 C         148.2051  142.1485  156.3312 C.ar    1  UNL1        0.0178
     26 C         149.3071  141.9022  155.3439 C.ar    1  UNL1        0.0384
     27 C         149.0623  142.1117  153.8789 C.ar    1  UNL1        0.1453
     28 C         147.7154  142.5674  153.4013 C.ar    1  UNL1        0.0384
     29 C         146.6134  142.8136  154.3886 C.ar    1  UNL1        0.0178
     30 O         150.1643  141.8654  152.8916 O.3     1  UNL1       -0.4184
     31 C         151.5526  142.3551  153.1795 C.3     1  UNL1        0.4893
     32 F         152.9409  142.8448  153.4674 F       1  UNL1       -0.1486
     33 F         151.9744  140.9573  153.5231 F       1  UNL1       -0.1486
     34 CL        151.1307  143.7529  152.8358 Cl      1  UNL1        0.0004
@<TRIPOS>BOND
     1    20    21    2
     2    21    22   am
     3    22    24    1
     4    24    25   ar
     5    25    26   ar
     6    26    27   ar
     7    27    30    1
     8    30    31    1
     9    31    32    1
    10    31    33    1
    11    31    34    1
    12    27    28   ar
    13    28    29   ar
    14    21     1    1
    15     1     2   ar
    16     2     3   ar
    17     3     4   ar
    18     4     7    1
    19     7     8    1
    20     8     9    1
    21     9    10    1
    22    10    11    1
    23    10    12    1
    24     4     5   ar
    25     5    14    1
    26    14    15   ar
    27    15    16   ar
    28    16    17   ar
    29    17    18   ar
    30     5     6   ar
    31    29    24   ar
    32     6     1   ar
    33    12     7    1
    34    18    14   ar
    35    22    23    1
    36    11    13    1
    37    18    19    1
@<TRIPOS>MOLECULE
*****
 34 37 0 0 0
SMALL
GASTEIGER

@<TRIPOS>ATOM
      1 C         142.1451  142.7305  163.9559 C.ar    1  UNL1        0.0729
      2 C         143.2950  143.0278  164.8721 C.ar    1  UNL1        0.1048
      3 N         143.3638  142.3808  166.2235 N.ar    1  UNL1       -0.2290
      4 C         142.2828  141.4364  166.6589 C.ar    1  UNL1        0.1331
      5 C         141.1329  141.1391  165.7428 C.ar    1  UNL1        0.0488
      6 C         141.0640  141.7861  164.3913 C.ar    1  UNL1        0.0103
      7 N         142.3517  140.7893  168.0104 N.pl3   1  UNL1       -0.2906
      8 C         142.6500  139.3446  168.2821 C.3     1  UNL1        0.0948
      9 C         142.6171  139.1357  169.7671 C.3     1  UNL1        0.0524
     10 C         142.2984  140.4514  170.4132 C.3     1  UNL1        0.1319
     11 O         142.1668  140.7012  171.8864 O.3     1  UNL1       -0.3827
     12 C         142.1343  141.4733  169.3276 C.3     1  UNL1        0.1213
     13 H         142.3203  139.8742  172.3696 H       1  UNL1        0.2104
     14 C         140.0519  140.1947  166.1781 C.ar    1  UNL1        0.0781
     15 C         139.5126  139.0441  165.3810 C.ar    1  UNL1        0.0410
     16 C         138.4477  138.3734  166.1972 C.ar    1  UNL1        0.1214
     17 N         138.3289  139.1094  167.4988 N.ar    1  UNL1       -0.1711
     18 N         139.3203  140.2350  167.4870 N.ar    1  UNL1       -0.2756
     19 H         139.4654  140.8860  168.2112 H       1  UNL1        0.1889
     20 O         143.1523  144.3292  162.1728 O.2     1  UNL1       -0.2698
     21 C         142.0762  143.3776  162.6044 C.2     1  UNL1        0.2510
     22 N         140.9312  143.0730  161.6845 N.am    1  UNL1       -0.2803
     23 H         140.2249  142.4484  161.9678 H       1  UNL1        0.1552
     24 C         140.8623  143.7201  160.3330 C.ar    1  UNL1        0.0507
     25 C         141.3829  142.9956  159.1272 C.ar    1  UNL1        0.0178
     26 C         141.3140  143.6427  157.7757 C.ar    1  UNL1        0.0384
     27 C         140.7245  145.0142  157.6301 C.ar    1  UNL1        0.1453
     28 C         140.2038  145.7387  158.8359 C.ar    1  UNL1        0.0384
     29 C         140.2728  145.0917  160.1873 C.ar    1  UNL1        0.0178
     30 O         140.6556  145.6613  156.2785 O.3     1  UNL1       -0.4184
     31 C         139.3270  146.0458  155.6979 C.3     1  UNL1        0.4893
     32 F         137.9984  146.4302  155.1173 F       1  UNL1       -0.1486
     33 F         138.7666  144.7132  156.0979 F       1  UNL1       -0.1486
     34 CL        139.8875  147.3784  155.2979 Cl      1  UNL1        0.0004
@<TRIPOS>BOND
     1    20    21    2
     2    21    22   am
     3    22    24    1
     4    24    25   ar
     5    25    26   ar
     6    26    27   ar
     7    27    30    1
     8    30    31    1
     9    31    32    1
    10    31    33    1
    11    31    34    1
    12    27    28   ar
    13    28    29   ar
    14    21     1    1
    15     1     2   ar
    16     2     3   ar
    17     3     4   ar
    18     4     7    1
    19     7     8    1
    20     8     9    1
    21     9    10    1
    22    10    11    1
    23    10    12    1
    24     4     5   ar
    25     5    14    1
    26    14    15   ar
    27    15    16   ar
    28    16    17   ar
    29    17    18   ar
    30     5     6   ar
    31    29    24   ar
    32     6     1   ar
    33    12     7    1
    34    18    14   ar
    35    22    23    1
    36    11    13    1
    37    18    19    1
@<TRIPOS>MOLECULE
*****
 34 37 0 0 0
SMALL
GASTEIGER

@<TRIPOS>ATOM
      1 C         141.3676  144.6378  159.6465 C.ar    1  UNL1        0.0729
      2 C         142.3662  143.5196  159.6938 C.ar    1  UNL1        0.1048
      3 N         142.4431  142.6333  160.9015 N.ar    1  UNL1       -0.2290
      4 C         141.5213  142.8653  162.0619 C.ar    1  UNL1        0.1331
      5 C         140.5227  143.9835  162.0146 C.ar    1  UNL1        0.0488
      6 C         140.4458  144.8698  160.8069 C.ar    1  UNL1        0.0103
      7 N         141.5982  141.9790  163.2697 N.pl3   1  UNL1       -0.2906
      8 C         140.8405  140.7008  163.4750 C.3     1  UNL1        0.0948
      9 C         141.2203  140.1471  164.8163 C.3     1  UNL1        0.0524
     10 C         142.2128  141.0832  165.4400 C.3     1  UNL1        0.1319
     11 O         142.8583  140.9163  166.7837 O.3     1  UNL1       -0.3827
     12 C         142.4463  142.2153  164.4841 C.3     1  UNL1        0.1213
     13 H         142.5355  140.1011  167.1985 H       1  UNL1        0.2104
     14 C         139.6010  144.2155  163.1750 C.ar    1  UNL1        0.0781
     15 C         138.2701  143.5576  163.3891 C.ar    1  UNL1        0.0410
     16 C         137.6948  144.0817  164.6715 C.ar    1  UNL1        0.1214
     17 N         138.6702  145.0635  165.2500 N.ar    1  UNL1       -0.1711
     18 N         139.8483  145.1462  164.3251 N.ar    1  UNL1       -0.2756
     19 H         140.6441  145.7120  164.4509 H       1  UNL1        0.1889
     20 O         142.5164  146.2409  157.9552 O.2     1  UNL1       -0.2698
     21 C         141.2907  145.5241  158.4387 C.2     1  UNL1        0.2510
     22 N         139.9881  145.6935  157.7145 N.am    1  UNL1       -0.2803
     23 H         139.1836  145.2231  158.0318 H       1  UNL1        0.1552
     24 C         139.9112  146.5798  156.5067 C.ar    1  UNL1        0.0507
     25 C         139.0421  147.8022  156.5276 C.ar    1  UNL1        0.0178
     26 C         138.9652  148.6885  155.3199 C.ar    1  UNL1        0.0384
     27 C         139.7574  148.3523  154.0913 C.ar    1  UNL1        0.1453
     28 C         140.6265  147.1299  154.0704 C.ar    1  UNL1        0.0384
     29 C         140.7033  146.2437  155.2781 C.ar    1  UNL1        0.0178
     30 O         139.6805  149.2386  152.8835 O.3     1  UNL1       -0.4184
     31 C         140.1969  150.6452  152.9514 C.3     1  UNL1        0.4893
     32 F         140.7133  152.0520  153.0193 F       1  UNL1       -0.1486
     33 F         141.4039  150.1659  153.7018 F       1  UNL1       -0.1486
     34 CL        138.9898  151.1246  152.2010 Cl      1  UNL1        0.0004
@<TRIPOS>BOND
     1    20    21    2
     2    21    22   am
     3    22    24    1
     4    24    25   ar
     5    25    26   ar
     6    26    27   ar
     7    27    30    1
     8    30    31    1
     9    31    32    1
    10    31    33    1
    11    31    34    1
    12    27    28   ar
    13    28    29   ar
    14    21     1    1
    15     1     2   ar
    16     2     3   ar
    17     3     4   ar
    18     4     7    1
    19     7     8    1
    20     8     9    1
    21     9    10    1
    22    10    11    1
    23    10    12    1
    24     4     5   ar
    25     5    14    1
    26    14    15   ar
    27    15    16   ar
    28    16    17   ar
    29    17    18   ar
    30     5     6   ar
    31    29    24   ar
    32     6     1   ar
    33    12     7    1
    34    18    14   ar
    35    22    23    1
    36    11    13    1
    37    18    19    1
@<TRIPOS>MOLECULE
*****
 34 37 0 0 0
SMALL
GASTEIGER

@<TRIPOS>ATOM
      1 C         140.5088  142.7452  162.0422 C.ar    1  UNL1        0.0729
      2 C         139.4027  143.7249  161.7841 C.ar    1  UNL1        0.1048
      3 N         139.2623  144.3585  160.4318 N.ar    1  UNL1       -0.2290
      4 C         140.2281  144.0123  159.3375 C.ar    1  UNL1        0.1331
      5 C         141.3342  143.0326  159.5956 C.ar    1  UNL1        0.0488
      6 C         141.4745  142.3990  160.9479 C.ar    1  UNL1        0.0103
      7 N         140.0877  144.6459  157.9851 N.pl3   1  UNL1       -0.2906
      8 C         139.4616  144.0152  156.7767 C.3     1  UNL1        0.0948
      9 C         139.5357  145.0009  155.6485 C.3     1  UNL1        0.0524
     10 C         140.2077  146.2408  156.1596 C.3     1  UNL1        0.1319
     11 O         140.4891  147.4821  155.3659 O.3     1  UNL1       -0.3827
     12 C         140.5489  146.0213  157.6037 C.3     1  UNL1        0.1213
     13 H         140.1680  147.3652  154.4581 H       1  UNL1        0.2104
     14 C         142.3000  142.6864  158.5013 C.ar    1  UNL1        0.0781
     15 C         142.2121  141.4972  157.5913 C.ar    1  UNL1        0.0410
     16 C         143.3810  141.5445  156.6525 C.ar    1  UNL1        0.1214
     17 N         144.1914  142.7629  156.9823 N.ar    1  UNL1       -0.1711
     18 N         143.5233  143.4686  158.1249 N.ar    1  UNL1       -0.2756
     19 H         143.8333  144.2993  158.5527 H       1  UNL1        0.1889
     20 O         141.8485  141.2663  163.7060 O.2     1  UNL1       -0.2698
     21 C         140.6491  142.1116  163.3946 C.2     1  UNL1        0.2510
     22 N         139.5901  142.3233  164.4356 N.am    1  UNL1       -0.2803
     23 H         138.8029  142.8781  164.2312 H       1  UNL1        0.1552
     24 C         139.7305  141.6897  165.7880 C.ar    1  UNL1        0.0507
     25 C         139.1760  140.3180  166.0348 C.ar    1  UNL1        0.0178
     26 C         139.3164  139.6845  167.3871 C.ar    1  UNL1        0.0384
     27 C         140.0113  140.4226  168.4927 C.ar    1  UNL1        0.1453
     28 C         140.5657  141.7943  168.2459 C.ar    1  UNL1        0.0384
     29 C         140.4254  142.4278  166.8935 C.ar    1  UNL1        0.0178
     30 O         140.1516  139.7890  169.8451 O.3     1  UNL1       -0.4184
     31 C         141.3700  140.0594  170.6772 C.3     1  UNL1        0.4893
     32 F         142.5884  140.3299  171.5093 F       1  UNL1       -0.1486
     33 F         140.6072  141.0865  171.4602 F       1  UNL1       -0.1486
     34 CL        142.1328  139.0323  169.8941 Cl      1  UNL1        0.0004
@<TRIPOS>BOND
     1    20    21    2
     2    21    22   am
     3    22    24    1
     4    24    25   ar
     5    25    26   ar
     6    26    27   ar
     7    27    30    1
     8    30    31    1
     9    31    32    1
    10    31    33    1
    11    31    34    1
    12    27    28   ar
    13    28    29   ar
    14    21     1    1
    15     1     2   ar
    16     2     3   ar
    17     3     4   ar
    18     4     7    1
    19     7     8    1
    20     8     9    1
    21     9    10    1
    22    10    11    1
    23    10    12    1
    24     4     5   ar
    25     5    14    1
    26    14    15   ar
    27    15    16   ar
    28    16    17   ar
    29    17    18   ar
    30     5     6   ar
    31    29    24   ar
    32     6     1   ar
    33    12     7    1
    34    18    14   ar
    35    22    23    1
    36    11    13    1
    37    18    19    1
@<TRIPOS>MOLECULE
*****
 34 37 0 0 0
SMALL
GASTEIGER

@<TRIPOS>ATOM
      1 C         139.3168  142.5784  161.2618 C.ar    1  UNL1        0.0729
      2 C         140.2864  143.6687  160.9142 C.ar    1  UNL1        0.1048
      3 N         140.5029  144.0506  159.4799 N.ar    1  UNL1       -0.2290
      4 C         139.7498  143.3422  158.3932 C.ar    1  UNL1        0.1331
      5 C         138.7802  142.2518  158.7408 C.ar    1  UNL1        0.0488
      6 C         138.5637  141.8699  160.1751 C.ar    1  UNL1        0.0103
      7 N         139.9664  143.7241  156.9588 N.pl3   1  UNL1       -0.2906
      8 C         140.8398  143.0018  155.9763 C.3     1  UNL1        0.0948
      9 C         140.7608  143.7266  154.6655 C.3     1  UNL1        0.0524
     10 C         139.8385  144.8970  154.8379 C.3     1  UNL1        0.1319
     11 O         139.4716  145.8939  153.7788 O.3     1  UNL1       -0.3827
     12 C         139.3476  144.8954  156.2553 C.3     1  UNL1        0.1213
     13 H         139.9250  145.6684  152.9515 H       1  UNL1        0.2104
     14 C         138.0271  141.5433  157.6541 C.ar    1  UNL1        0.0781
     15 C         136.9721  142.1466  156.7749 C.ar    1  UNL1        0.0410
     16 C         136.4898  141.0833  155.8332 C.ar    1  UNL1        0.1214
     17 N         137.2467  139.8228  156.1305 N.ar    1  UNL1       -0.1711
     18 N         138.1968  140.1071  157.2558 N.ar    1  UNL1       -0.2756
     19 H         138.8220  139.4640  157.6618 H       1  UNL1        0.1889
     20 O         137.9338  142.7578  163.4538 O.2     1  UNL1       -0.2698
     21 C         139.1003  142.1964  162.6961 C.2     1  UNL1        0.2510
     22 N         140.0502  141.2531  163.3727 N.am    1  UNL1       -0.2803
     23 H         140.8158  140.8846  162.8754 H       1  UNL1        0.1552
     24 C         139.8336  140.8711  164.8070 C.ar    1  UNL1        0.0507
     25 C         140.4997  141.6530  165.9002 C.ar    1  UNL1        0.0178
     26 C         140.2831  141.2710  167.3344 C.ar    1  UNL1        0.0384
     27 C         139.4005  140.1072  167.6756 C.ar    1  UNL1        0.1453
     28 C         138.7344  139.3253  166.5824 C.ar    1  UNL1        0.0384
     29 C         138.9510  139.7073  165.1482 C.ar    1  UNL1        0.0178
     30 O         139.1839  139.7252  169.1099 O.3     1  UNL1       -0.4184
     31 C         139.8723  140.4895  170.2017 C.3     1  UNL1        0.4893
     32 F         140.5607  141.2538  171.2935 F       1  UNL1       -0.1486
     33 F         138.7520  141.4869  170.2099 F       1  UNL1       -0.1486
     34 CL        140.9926  139.4921  170.1935 Cl      1  UNL1        0.0004
@<TRIPOS>BOND
     1    20    21    2
     2    21    22   am
     3    22    24    1
     4    24    25   ar
     5    25    26   ar
     6    26    27   ar
     7    27    30    1
     8    30    31    1
     9    31    32    1
    10    31    33    1
    11    31    34    1
    12    27    28   ar
    13    28    29   ar
    14    21     1    1
    15     1     2   ar
    16     2     3   ar
    17     3     4   ar
    18     4     7    1
    19     7     8    1
    20     8     9    1
    21     9    10    1
    22    10    11    1
    23    10    12    1
    24     4     5   ar
    25     5    14    1
    26    14    15   ar
    27    15    16   ar
    28    16    17   ar
    29    17    18   ar
    30     5     6   ar
    31    29    24   ar
    32     6     1   ar
    33    12     7    1
    34    18    14   ar
    35    22    23    1
    36    11    13    1
    37    18    19    1
