@<TRIPOS>MOLECULE
*****
 39 42 0 0 0
SMALL
GASTEIGER

@<TRIPOS>ATOM
      1 C         142.7778  139.5393  158.4619 C.3     1  UNL1        0.2032
      2 C         142.9178  138.5328  159.5653 C.3     1  UNL1        0.0680
      3 C         143.5644  138.9252  160.8607 C.3     1  UNL1        0.0973
      4 N         144.0709  140.3240  161.0527 N.am    1  UNL1       -0.2762
      5 C         144.7175  140.7163  162.3480 C.2     1  UNL1        0.2301
      6 O         145.2240  142.1151  162.5401 O.2     1  UNL1       -0.2745
      7 C         143.9309  141.3304  159.9493 C.3     1  UNL1        0.1323
      8 C         143.2843  140.9381  158.6539 C.3     1  UNL1        0.2202
      9 F         143.1443  141.9445  157.5505 F       1  UNL1       -0.2316
     10 O         142.1312  139.1469  157.1665 O.3     1  UNL1       -0.4609
     11 C         142.8046  135.0334  155.4709 C.ar    1  UNL1        0.0387
     12 C         143.9707  135.9457  155.7110 C.ar    1  UNL1        0.1036
     13 N         143.7463  137.3169  156.2762 N.ar    1  UNL1       -0.2100
     14 C         142.3557  137.7757  156.6013 C.ar    1  UNL1        0.2292
     15 C         141.1895  136.8634  156.3613 C.ar    1  UNL1        0.1062
     16 C         141.4140  135.4922  155.7961 C.ar    1  UNL1        0.0123
     17 C         144.4708  130.0586  154.8739 C.3     1  UNL1        0.1321
     18 N         143.7949  131.3755  154.6313 N.ar    1  UNL1       -0.3059
     19 C         142.9537  131.7287  153.4405 C.ar    1  UNL1        0.1786
     20 N         142.4804  133.1419  153.6102 N.ar    1  UNL1       -0.2238
     21 C         143.0290  133.6621  154.9057 C.ar    1  UNL1        0.1017
     22 C         143.8414  132.5705  155.5368 C.ar    1  UNL1        0.0965
     23 C         139.7989  137.3222  156.6864 C.2     1  UNL1        0.2473
     24 N         139.5505  138.1546  157.9092 N.am    1  UNL1       -0.3252
     25 O         138.6568  136.9485  155.7888 O.2     1  UNL1       -0.2702
     26 H         140.3001  138.3998  158.4984 H       1  UNL1        0.1453
     27 H         138.6378  138.4557  158.1226 H       1  UNL1        0.1453
     28 C         144.8575  139.7099  163.4514 C.3     1  UNL1        0.1116
     29 C         144.0953  139.8888  164.7310 C.ar    1  UNL1       -0.0129
     30 C         143.5339  141.2332  165.0878 C.ar    1  UNL1       -0.0007
     31 C         142.7718  141.4122  166.3672 C.ar    1  UNL1        0.0369
     32 C         142.5709  140.2467  167.2898 C.ar    1  UNL1        0.1468
     33 C         143.1323  138.9022  166.9330 C.ar    1  UNL1        0.0369
     34 C         143.8945  138.7233  165.6536 C.ar    1  UNL1       -0.0007
     35 O         141.8087  140.4256  168.5694 O.3     1  UNL1       -0.4045
     36 C         142.4516  140.0801  169.8798 C.3     1  UNL1        0.5753
     37 F         143.0944  139.7347  171.1903 F       1  UNL1       -0.1328
     38 F         143.5490  141.0640  169.6009 F       1  UNL1       -0.1328
     39 F         141.3542  139.0963  170.1588 F       1  UNL1       -0.1328
@<TRIPOS>BOND
     1    17    18    1
     2    18    19   ar
     3    19    20   ar
     4    20    21   ar
     5    21    11    1
     6    11    12   ar
     7    12    13   ar
     8    13    14   ar
     9    14    10    1
    10     1    10    1
    11     1     2    1
    12     2     3    1
    13     3     4    1
    14     4     5   am
    15     5     6    2
    16     5    28    1
    17    28    29    1
    18    29    30   ar
    19    30    31   ar
    20    31    32   ar
    21    32    35    1
    22    35    36    1
    23    36    37    1
    24    36    38    1
    25    36    39    1
    26    32    33   ar
    27    33    34   ar
    28     4     7    1
    29     7     8    1
    30     8     9    1
    31    14    15   ar
    32    15    23    1
    33    23    24   am
    34    23    25    2
    35    15    16   ar
    36    21    22   ar
    37    22    18   ar
    38    16    11   ar
    39     8     1    1
    40    34    29   ar
    41    24    26    1
    42    24    27    1
@<TRIPOS>MOLECULE
*****
 39 42 0 0 0
SMALL
GASTEIGER

@<TRIPOS>ATOM
      1 C         142.7769  139.4635  158.5527 C.3     1  UNL1        0.2032
      2 C         142.7287  138.5177  159.7160 C.3     1  UNL1        0.0680
      3 C         143.4028  138.8806  161.0060 C.3     1  UNL1        0.0973
      4 N         144.1249  140.1892  161.1327 N.am    1  UNL1       -0.2762
      5 C         144.7989  140.5520  162.4226 C.2     1  UNL1        0.2301
      6 O         145.5212  141.8606  162.5493 O.2     1  UNL1       -0.2745
      7 C         144.1732  141.1349  159.9694 C.3     1  UNL1        0.1323
      8 C         143.4992  140.7721  158.6794 C.3     1  UNL1        0.2202
      9 F         143.5474  141.7178  157.5161 F       1  UNL1       -0.2316
     10 O         142.1029  139.1007  157.2627 O.3     1  UNL1       -0.4609
     11 C         142.7475  135.0307  155.4544 C.ar    1  UNL1        0.0387
     12 C         143.9229  135.9131  155.7536 C.ar    1  UNL1        0.1036
     13 N         143.7081  137.2697  156.3564 N.ar    1  UNL1       -0.2100
     14 C         142.3177  137.7440  156.6599 C.ar    1  UNL1        0.2292
     15 C         141.1423  136.8616  156.3606 C.ar    1  UNL1        0.1062
     16 C         141.3571  135.5049  155.7579 C.ar    1  UNL1        0.0123
     17 C         144.4241  130.0819  154.6933 C.3     1  UNL1        0.1321
     18 N         143.7329  131.3993  154.5018 N.ar    1  UNL1       -0.3059
     19 C         142.8527  131.7734  153.3462 C.ar    1  UNL1        0.1786
     20 N         142.3764  133.1792  153.5624 N.ar    1  UNL1       -0.2238
     21 C         142.9623  133.6740  154.8516 C.ar    1  UNL1        0.1017
     22 C         143.8006  132.5740  155.4321 C.ar    1  UNL1        0.0965
     23 C         139.7520  137.3358  156.6641 C.2     1  UNL1        0.2473
     24 N         139.5049  138.2286  157.8438 N.am    1  UNL1       -0.3252
     25 O         138.6087  136.9172  155.7880 O.2     1  UNL1       -0.2702
     26 H         140.2552  138.5034  158.4189 H       1  UNL1        0.1453
     27 H         138.5923  138.5399  158.0430 H       1  UNL1        0.1453
     28 C         144.7507  139.6062  163.5859 C.3     1  UNL1        0.1116
     29 C         143.8769  139.9128  164.7660 C.ar    1  UNL1       -0.0129
     30 C         143.4599  138.8126  165.6964 C.ar    1  UNL1       -0.0007
     31 C         142.5862  139.1190  166.8764 C.ar    1  UNL1        0.0369
     32 C         142.1294  140.5258  167.1261 C.ar    1  UNL1        0.1468
     33 C         142.5463  141.6260  166.1957 C.ar    1  UNL1        0.0369
     34 C         143.4201  141.3195  165.0157 C.ar    1  UNL1       -0.0007
     35 O         141.2556  140.8323  168.3062 O.3     1  UNL1       -0.4045
     36 C         139.8895  140.2210  168.4068 C.3     1  UNL1        0.5753
     37 F         138.5234  139.6097  168.5074 F       1  UNL1       -0.1328
     38 F         139.6086  140.6152  166.9870 F       1  UNL1       -0.1328
     39 F         140.1704  139.8269  169.8265 F       1  UNL1       -0.1328
@<TRIPOS>BOND
     1    17    18    1
     2    18    19   ar
     3    19    20   ar
     4    20    21   ar
     5    21    11    1
     6    11    12   ar
     7    12    13   ar
     8    13    14   ar
     9    14    10    1
    10     1    10    1
    11     1     2    1
    12     2     3    1
    13     3     4    1
    14     4     5   am
    15     5     6    2
    16     5    28    1
    17    28    29    1
    18    29    30   ar
    19    30    31   ar
    20    31    32   ar
    21    32    35    1
    22    35    36    1
    23    36    37    1
    24    36    38    1
    25    36    39    1
    26    32    33   ar
    27    33    34   ar
    28     4     7    1
    29     7     8    1
    30     8     9    1
    31    14    15   ar
    32    15    23    1
    33    23    24   am
    34    23    25    2
    35    15    16   ar
    36    21    22   ar
    37    22    18   ar
    38    16    11   ar
    39     8     1    1
    40    34    29   ar
    41    24    26    1
    42    24    27    1
@<TRIPOS>MOLECULE
*****
 39 42 0 0 0
SMALL
GASTEIGER

@<TRIPOS>ATOM
      1 C         142.2496  138.6818  159.4161 C.3     1  UNL1        0.2032
      2 C         141.3969  138.0241  160.4603 C.3     1  UNL1        0.0680
      3 C         141.7775  138.1187  161.9081 C.3     1  UNL1        0.0973
      4 N         143.0109  138.8711  162.3117 N.am    1  UNL1       -0.2762
      5 C         143.3914  138.9657  163.7595 C.2     1  UNL1        0.2301
      6 O         144.6248  139.7180  164.1632 O.2     1  UNL1       -0.2745
      7 C         143.8636  139.5287  161.2676 C.3     1  UNL1        0.1323
      8 C         143.4830  139.4341  159.8198 C.3     1  UNL1        0.2202
      9 F         144.3357  140.0918  158.7756 F       1  UNL1       -0.2316
     10 O         141.8690  138.5872  157.9683 O.3     1  UNL1       -0.4609
     11 C         142.3610  134.6960  155.7622 C.ar    1  UNL1        0.0387
     12 C         143.4024  135.1361  156.7480 C.ar    1  UNL1        0.1036
     13 N         143.2384  136.4331  157.4833 N.ar    1  UNL1       -0.2100
     14 C         142.0330  137.2901  157.2329 C.ar    1  UNL1        0.2292
     15 C         140.9916  136.8500  156.2472 C.ar    1  UNL1        0.1062
     16 C         141.1556  135.5529  155.5118 C.ar    1  UNL1        0.0123
     17 C         144.3024  130.0743  154.1034 C.3     1  UNL1        0.1321
     18 N         143.4173  131.2746  154.2644 N.ar    1  UNL1       -0.3059
     19 C         142.1371  131.5314  153.5260 C.ar    1  UNL1        0.1786
     20 N         141.5856  132.8443  153.9972 N.ar    1  UNL1       -0.2238
     21 C         142.5249  133.3989  155.0268 C.ar    1  UNL1        0.1017
     22 C         143.6570  132.4288  155.1919 C.ar    1  UNL1        0.0965
     23 C         139.7862  137.7069  155.9967 C.2     1  UNL1        0.2473
     24 N         139.9297  139.1977  155.9149 N.am    1  UNL1       -0.3252
     25 O         138.4372  137.0730  155.8282 O.2     1  UNL1       -0.2702
     26 H         140.8151  139.6138  156.0255 H       1  UNL1        0.1453
     27 H         139.1386  139.7601  155.7505 H       1  UNL1        0.1453
     28 C         142.5387  138.3080  164.8037 C.3     1  UNL1        0.1116
     29 C         142.1566  139.0611  166.0434 C.ar    1  UNL1       -0.0129
     30 C         143.0293  138.9927  167.2615 C.ar    1  UNL1       -0.0007
     31 C         142.6472  139.7458  168.5012 C.ar    1  UNL1        0.0369
     32 C         141.3924  140.5674  168.5227 C.ar    1  UNL1        0.1468
     33 C         140.5197  140.6358  167.3047 C.ar    1  UNL1        0.0369
     34 C         140.9018  139.8827  166.0650 C.ar    1  UNL1       -0.0007
     35 O         141.0103  141.3205  169.7625 O.3     1  UNL1       -0.4045
     36 C         140.6276  142.7681  169.6725 C.3     1  UNL1        0.5753
     37 F         140.2450  144.2157  169.5826 F       1  UNL1       -0.1328
     38 F         139.2795  142.4474  170.2466 F       1  UNL1       -0.1328
     39 F         141.9758  143.0888  169.0984 F       1  UNL1       -0.1328
@<TRIPOS>BOND
     1    17    18    1
     2    18    19   ar
     3    19    20   ar
     4    20    21   ar
     5    21    11    1
     6    11    12   ar
     7    12    13   ar
     8    13    14   ar
     9    14    10    1
    10     1    10    1
    11     1     2    1
    12     2     3    1
    13     3     4    1
    14     4     5   am
    15     5     6    2
    16     5    28    1
    17    28    29    1
    18    29    30   ar
    19    30    31   ar
    20    31    32   ar
    21    32    35    1
    22    35    36    1
    23    36    37    1
    24    36    38    1
    25    36    39    1
    26    32    33   ar
    27    33    34   ar
    28     4     7    1
    29     7     8    1
    30     8     9    1
    31    14    15   ar
    32    15    23    1
    33    23    24   am
    34    23    25    2
    35    15    16   ar
    36    21    22   ar
    37    22    18   ar
    38    16    11   ar
    39     8     1    1
    40    34    29   ar
    41    24    26    1
    42    24    27    1
@<TRIPOS>MOLECULE
*****
 39 42 0 0 0
SMALL
GASTEIGER

@<TRIPOS>ATOM
      1 C         140.3085  139.7474  158.6503 C.3     1  UNL1        0.2032
      2 C         140.3042  138.7307  159.7531 C.3     1  UNL1        0.0680
      3 C         139.5111  138.9816  161.0014 C.3     1  UNL1        0.0973
      4 N         138.7223  140.2491  161.1467 N.am    1  UNL1       -0.2762
      5 C         137.9292  140.4999  162.3950 C.2     1  UNL1        0.2301
      6 O         137.1404  141.7675  162.5404 O.2     1  UNL1       -0.2745
      7 C         138.7266  141.2658  160.0439 C.3     1  UNL1        0.1323
      8 C         139.5197  141.0150  158.7957 C.3     1  UNL1        0.2202
      9 F         139.5240  142.0318  157.6928 F       1  UNL1       -0.2316
     10 O         141.1016  139.4966  157.4020 O.3     1  UNL1       -0.4609
     11 C         142.0648  135.2809  156.1573 C.ar    1  UNL1        0.0387
     12 C         142.9876  136.0196  157.0807 C.ar    1  UNL1        0.1036
     13 N         142.6665  137.4248  157.4956 N.ar    1  UNL1       -0.2100
     14 C         141.4226  138.0913  156.9871 C.ar    1  UNL1        0.2292
     15 C         140.4998  137.3526  156.0637 C.ar    1  UNL1        0.1062
     16 C         140.8209  135.9473  155.6488 C.ar    1  UNL1        0.0123
     17 C         143.3684  131.0815  153.2338 C.3     1  UNL1        0.1321
     18 N         142.9851  131.9453  154.3986 N.ar    1  UNL1       -0.3059
     19 C         142.7748  131.4808  155.8093 C.ar    1  UNL1        0.1786
     20 N         142.4045  132.6737  156.6398 N.ar    1  UNL1       -0.2238
     21 C         142.3859  133.8756  155.7424 C.ar    1  UNL1        0.1017
     22 C         142.7447  133.4254  154.3573 C.ar    1  UNL1        0.0965
     23 C         139.2560  138.0190  155.5552 C.2     1  UNL1        0.2473
     24 N         139.2956  139.4572  155.1308 N.am    1  UNL1       -0.3252
     25 O         137.9724  137.2474  155.4712 O.2     1  UNL1       -0.2702
     26 H         140.1380  139.9636  155.1859 H       1  UNL1        0.1453
     27 H         138.4792  139.8946  154.7970 H       1  UNL1        0.1453
     28 C         137.9249  139.4832  163.4978 C.3     1  UNL1        0.1116
     29 C         138.5552  139.8079  164.8197 C.ar    1  UNL1       -0.0129
     30 C         139.6012  140.8794  164.9088 C.ar    1  UNL1       -0.0007
     31 C         140.2315  141.2041  166.2306 C.ar    1  UNL1        0.0369
     32 C         139.8158  140.4574  167.4633 C.ar    1  UNL1        0.1468
     33 C         138.7698  139.3859  167.3742 C.ar    1  UNL1        0.0369
     34 C         138.1395  139.0612  166.0524 C.ar    1  UNL1       -0.0007
     35 O         140.4461  140.7821  168.7852 O.3     1  UNL1       -0.4045
     36 C         141.2268  139.7340  169.5215 C.3     1  UNL1        0.5753
     37 F         142.0076  138.6860  170.2577 F       1  UNL1       -0.1328
     38 F         142.0814  139.5181  168.3077 F       1  UNL1       -0.1328
     39 F         140.3723  139.9500  170.7352 F       1  UNL1       -0.1328
@<TRIPOS>BOND
     1    17    18    1
     2    18    19   ar
     3    19    20   ar
     4    20    21   ar
     5    21    11    1
     6    11    12   ar
     7    12    13   ar
     8    13    14   ar
     9    14    10    1
    10     1    10    1
    11     1     2    1
    12     2     3    1
    13     3     4    1
    14     4     5   am
    15     5     6    2
    16     5    28    1
    17    28    29    1
    18    29    30   ar
    19    30    31   ar
    20    31    32   ar
    21    32    35    1
    22    35    36    1
    23    36    37    1
    24    36    38    1
    25    36    39    1
    26    32    33   ar
    27    33    34   ar
    28     4     7    1
    29     7     8    1
    30     8     9    1
    31    14    15   ar
    32    15    23    1
    33    23    24   am
    34    23    25    2
    35    15    16   ar
    36    21    22   ar
    37    22    18   ar
    38    16    11   ar
    39     8     1    1
    40    34    29   ar
    41    24    26    1
    42    24    27    1
@<TRIPOS>MOLECULE
*****
 39 42 0 0 0
SMALL
GASTEIGER

@<TRIPOS>ATOM
      1 C         140.0622  141.0351  159.8662 C.3     1  UNL1        0.2032
      2 C         140.3601  139.9903  160.9004 C.3     1  UNL1        0.0680
      3 C         139.7626  140.1008  162.2719 C.3     1  UNL1        0.0973
      4 N         138.8672  141.2560  162.6090 N.am    1  UNL1       -0.2762
      5 C         138.2697  141.3664  163.9804 C.2     1  UNL1        0.2301
      6 O         137.3743  142.5217  164.3176 O.2     1  UNL1       -0.2745
      7 C         138.5693  142.3008  161.5748 C.3     1  UNL1        0.1323
      8 C         139.1668  142.1904  160.2034 C.3     1  UNL1        0.2202
      9 F         138.8689  143.2352  159.1691 F       1  UNL1       -0.2316
     10 O         140.6597  140.9247  158.4948 O.3     1  UNL1       -0.4609
     11 C         141.6534  136.8794  156.7924 C.ar    1  UNL1        0.0387
     12 C         140.2639  137.4285  156.6590 C.ar    1  UNL1        0.1036
     13 N         139.9327  138.7769  157.2264 N.ar    1  UNL1       -0.2100
     14 C         140.9910  139.5762  157.9273 C.ar    1  UNL1        0.2292
     15 C         142.3804  139.0271  158.0608 C.ar    1  UNL1        0.1062
     16 C         142.7116  137.6786  157.4933 C.ar    1  UNL1        0.0123
     17 C         144.1517  132.3463  155.7480 C.3     1  UNL1        0.1321
     18 N         143.1330  133.4473  155.7449 N.ar    1  UNL1       -0.3059
     19 C         141.8556  133.4644  154.9586 C.ar    1  UNL1        0.1786
     20 N         141.1459  134.7521  155.2553 N.ar    1  UNL1       -0.2238
     21 C         141.9846  135.5309  156.2250 C.ar    1  UNL1        0.1017
     22 C         143.2126  134.7244  156.5275 C.ar    1  UNL1        0.0965
     23 C         143.4387  139.8263  158.7617 C.2     1  UNL1        0.2473
     24 N         143.7417  141.2254  158.3138 N.am    1  UNL1       -0.3252
     25 O         144.1939  139.2265  159.9105 O.2     1  UNL1       -0.2702
     26 H         143.2460  141.6191  157.5597 H       1  UNL1        0.1453
     27 H         144.4363  141.7500  158.7738 H       1  UNL1        0.1453
     28 C         138.5676  140.3216  165.0146 C.3     1  UNL1        0.1116
     29 C         139.3224  140.6903  166.2574 C.ar    1  UNL1       -0.0129
     30 C         140.0961  141.9742  166.3119 C.ar    1  UNL1       -0.0007
     31 C         140.8509  142.3429  167.5546 C.ar    1  UNL1        0.0369
     32 C         140.8319  141.4277  168.7429 C.ar    1  UNL1        0.1468
     33 C         140.0582  140.1438  168.6884 C.ar    1  UNL1        0.0369
     34 C         139.3034  139.7751  167.4457 C.ar    1  UNL1       -0.0007
     35 O         141.5867  141.7964  169.9857 O.3     1  UNL1       -0.4045
     36 C         143.0361  142.1727  169.8990 C.3     1  UNL1        0.5753
     37 F         144.4855  142.5490  169.8123 F       1  UNL1       -0.1328
     38 F         143.3853  140.7516  169.5695 F       1  UNL1       -0.1328
     39 F         142.6869  143.5938  170.2285 F       1  UNL1       -0.1328
@<TRIPOS>BOND
     1    17    18    1
     2    18    19   ar
     3    19    20   ar
     4    20    21   ar
     5    21    11    1
     6    11    12   ar
     7    12    13   ar
     8    13    14   ar
     9    14    10    1
    10     1    10    1
    11     1     2    1
    12     2     3    1
    13     3     4    1
    14     4     5   am
    15     5     6    2
    16     5    28    1
    17    28    29    1
    18    29    30   ar
    19    30    31   ar
    20    31    32   ar
    21    32    35    1
    22    35    36    1
    23    36    37    1
    24    36    38    1
    25    36    39    1
    26    32    33   ar
    27    33    34   ar
    28     4     7    1
    29     7     8    1
    30     8     9    1
    31    14    15   ar
    32    15    23    1
    33    23    24   am
    34    23    25    2
    35    15    16   ar
    36    21    22   ar
    37    22    18   ar
    38    16    11   ar
    39     8     1    1
    40    34    29   ar
    41    24    26    1
    42    24    27    1
@<TRIPOS>MOLECULE
*****
 39 42 0 0 0
SMALL
GASTEIGER

@<TRIPOS>ATOM
      1 C         143.5901  139.4431  160.5500 C.3     1  UNL1        0.2032
      2 C         144.3012  139.9168  161.7829 C.3     1  UNL1        0.0680
      3 C         143.8687  139.4269  163.1331 C.3     1  UNL1        0.0973
      4 N         142.7251  138.4633  163.2504 N.am    1  UNL1       -0.2762
      5 C         142.2926  137.9735  164.6006 C.2     1  UNL1        0.2301
      6 O         141.1489  137.0099  164.7179 O.2     1  UNL1       -0.2745
      7 C         142.0140  137.9897  162.0175 C.3     1  UNL1        0.1323
      8 C         142.4465  138.4795  160.6674 C.3     1  UNL1        0.2202
      9 F         141.7354  138.0059  159.4345 F       1  UNL1       -0.2316
     10 O         144.0226  139.9329  159.1999 O.3     1  UNL1       -0.4609
     11 C         141.9762  143.4783  157.3311 C.ar    1  UNL1        0.0387
     12 C         141.3020  142.7193  158.4353 C.ar    1  UNL1        0.1036
     13 N         141.9841  141.5376  159.0582 N.ar    1  UNL1       -0.2100
     14 C         143.3405  141.1148  158.5769 C.ar    1  UNL1        0.2292
     15 C         144.0147  141.8738  157.4727 C.ar    1  UNL1        0.1062
     16 C         143.3326  143.0556  156.8498 C.ar    1  UNL1        0.0123
     17 C         140.5774  147.2310  153.8898 C.3     1  UNL1        0.1321
     18 N         140.6512  146.3851  155.1264 N.ar    1  UNL1       -0.3059
     19 C         139.8377  146.5726  156.3727 C.ar    1  UNL1        0.1786
     20 N         140.2352  145.5065  157.3502 N.ar    1  UNL1       -0.2238
     21 C         141.2941  144.6602  156.7081 C.ar    1  UNL1        0.1017
     22 C         141.5512  145.2032  155.3337 C.ar    1  UNL1        0.0965
     23 C         145.3710  141.4510  156.9914 C.2     1  UNL1        0.2473
     24 N         145.5831  140.0591  156.4742 N.am    1  UNL1       -0.3252
     25 O         146.5153  142.4201  157.0274 O.2     1  UNL1       -0.2702
     26 H         144.8320  139.4230  156.4506 H       1  UNL1        0.1453
     27 H         146.4733  139.7817  156.1583 H       1  UNL1        0.1453
     28 C         143.0037  138.4472  165.8334 C.3     1  UNL1        0.1116
     29 C         142.2681  139.2587  166.8584 C.ar    1  UNL1       -0.0129
     30 C         142.7375  139.2711  168.2830 C.ar    1  UNL1       -0.0007
     31 C         142.0021  140.0826  169.3079 C.ar    1  UNL1        0.0369
     32 C         140.7972  140.8817  168.9083 C.ar    1  UNL1        0.1468
     33 C         140.3278  140.8692  167.4836 C.ar    1  UNL1        0.0369
     34 C         141.0633  140.0578  166.4587 C.ar    1  UNL1       -0.0007
     35 O         140.0617  141.6932  169.9332 O.3     1  UNL1       -0.4045
     36 C         140.2450  143.1811  169.9843 C.3     1  UNL1        0.5753
     37 F         140.4283  144.6690  170.0354 F       1  UNL1       -0.1328
     38 F         139.1285  143.2844  170.9807 F       1  UNL1       -0.1328
     39 F         141.3615  143.0777  168.9879 F       1  UNL1       -0.1328
@<TRIPOS>BOND
     1    17    18    1
     2    18    19   ar
     3    19    20   ar
     4    20    21   ar
     5    21    11    1
     6    11    12   ar
     7    12    13   ar
     8    13    14   ar
     9    14    10    1
    10     1    10    1
    11     1     2    1
    12     2     3    1
    13     3     4    1
    14     4     5   am
    15     5     6    2
    16     5    28    1
    17    28    29    1
    18    29    30   ar
    19    30    31   ar
    20    31    32   ar
    21    32    35    1
    22    35    36    1
    23    36    37    1
    24    36    38    1
    25    36    39    1
    26    32    33   ar
    27    33    34   ar
    28     4     7    1
    29     7     8    1
    30     8     9    1
    31    14    15   ar
    32    15    23    1
    33    23    24   am
    34    23    25    2
    35    15    16   ar
    36    21    22   ar
    37    22    18   ar
    38    16    11   ar
    39     8     1    1
    40    34    29   ar
    41    24    26    1
    42    24    27    1
@<TRIPOS>MOLECULE
*****
 39 42 0 0 0
SMALL
GASTEIGER

@<TRIPOS>ATOM
      1 C         142.0201  138.5883  158.9903 C.3     1  UNL1        0.2032
      2 C         143.2669  138.7828  159.8013 C.3     1  UNL1        0.0680
      3 C         143.1723  138.9947  161.2833 C.3     1  UNL1        0.0973
      4 N         141.8309  139.0120  161.9542 N.am    1  UNL1       -0.2762
      5 C         141.7363  139.2238  163.4362 C.2     1  UNL1        0.2301
      6 O         140.3948  139.2411  164.1072 O.2     1  UNL1       -0.2745
      7 C         140.5841  138.8175  161.1433 C.3     1  UNL1        0.1323
      8 C         140.6787  138.6056  159.6614 C.3     1  UNL1        0.2202
      9 F         139.4318  138.4111  158.8505 F       1  UNL1       -0.2316
     10 O         142.1147  138.3765  157.5084 O.3     1  UNL1       -0.4609
     11 C         142.2934  134.2013  155.8392 C.ar    1  UNL1        0.0387
     12 C         143.3742  134.6885  156.7582 C.ar    1  UNL1        0.1036
     13 N         143.3146  136.0802  157.3145 N.ar    1  UNL1       -0.2100
     14 C         142.1743  136.9847  156.9520 C.ar    1  UNL1        0.2292
     15 C         141.0935  136.4975  156.0330 C.ar    1  UNL1        0.1062
     16 C         141.1531  135.1058  155.4767 C.ar    1  UNL1        0.0123
     17 C         144.1214  129.6297  153.9315 C.3     1  UNL1        0.1321
     18 N         143.1932  130.7082  154.4059 N.ar    1  UNL1       -0.3059
     19 C         141.6959  130.6276  154.4473 C.ar    1  UNL1        0.1786
     20 N         141.1766  131.9264  154.9892 N.ar    1  UNL1       -0.2238
     21 C         142.3530  132.8096  155.2828 C.ar    1  UNL1        0.1017
     22 C         143.5993  132.0567  154.9223 C.ar    1  UNL1        0.0965
     23 C         139.9531  137.4020  155.6705 C.2     1  UNL1        0.2473
     24 N         140.2266  138.7822  155.1507 N.am    1  UNL1       -0.3252
     25 O         138.5393  136.9263  155.8277 O.2     1  UNL1       -0.2702
     26 H         141.1545  139.0945  155.0475 H       1  UNL1        0.1453
     27 H         139.4781  139.3759  154.9127 H       1  UNL1        0.1453
     28 C         142.9831  139.4183  164.2471 C.3     1  UNL1        0.1116
     29 C         142.9031  140.0469  165.6067 C.ar    1  UNL1       -0.0129
     30 C         143.0829  141.5282  165.7599 C.ar    1  UNL1       -0.0007
     31 C         143.0029  142.1569  167.1194 C.ar    1  UNL1        0.0369
     32 C         142.7429  141.3042  168.3258 C.ar    1  UNL1        0.1468
     33 C         142.5631  139.8230  168.1726 C.ar    1  UNL1        0.0369
     34 C         142.6431  139.1943  166.8131 C.ar    1  UNL1       -0.0007
     35 O         142.6629  141.9329  169.6854 O.3     1  UNL1       -0.4045
     36 C         141.7953  143.1366  169.9052 C.3     1  UNL1        0.5753
     37 F         140.9277  144.3404  170.1249 F       1  UNL1       -0.1328
     38 F         140.6807  142.4704  169.1542 F       1  UNL1       -0.1328
     39 F         142.9099  143.8028  170.6561 F       1  UNL1       -0.1328
@<TRIPOS>BOND
     1    17    18    1
     2    18    19   ar
     3    19    20   ar
     4    20    21   ar
     5    21    11    1
     6    11    12   ar
     7    12    13   ar
     8    13    14   ar
     9    14    10    1
    10     1    10    1
    11     1     2    1
    12     2     3    1
    13     3     4    1
    14     4     5   am
    15     5     6    2
    16     5    28    1
    17    28    29    1
    18    29    30   ar
    19    30    31   ar
    20    31    32   ar
    21    32    35    1
    22    35    36    1
    23    36    37    1
    24    36    38    1
    25    36    39    1
    26    32    33   ar
    27    33    34   ar
    28     4     7    1
    29     7     8    1
    30     8     9    1
    31    14    15   ar
    32    15    23    1
    33    23    24   am
    34    23    25    2
    35    15    16   ar
    36    21    22   ar
    37    22    18   ar
    38    16    11   ar
    39     8     1    1
    40    34    29   ar
    41    24    26    1
    42    24    27    1
@<TRIPOS>MOLECULE
*****
 39 42 0 0 0
SMALL
GASTEIGER

@<TRIPOS>ATOM
      1 C         144.2265  141.2472  161.2141 C.3     1  UNL1        0.2032
      2 C         144.6370  141.3346  162.6541 C.3     1  UNL1        0.0680
      3 C         144.0955  140.3516  163.6494 C.3     1  UNL1        0.0973
      4 N         143.1436  139.2811  163.2045 N.am    1  UNL1       -0.2762
      5 C         142.6021  138.2981  164.1997 C.2     1  UNL1        0.2301
      6 O         141.6501  137.2276  163.7549 O.2     1  UNL1       -0.2745
      7 C         142.7331  139.1937  161.7644 C.3     1  UNL1        0.1323
      8 C         143.2745  140.1767  160.7692 C.3     1  UNL1        0.2202
      9 F         142.8640  140.0893  159.3291 F       1  UNL1       -0.2316
     10 O         144.7679  142.2302  160.2188 O.3     1  UNL1       -0.4609
     11 C         141.9899  144.2500  157.3114 C.ar    1  UNL1        0.0387
     12 C         141.7562  144.3820  158.7872 C.ar    1  UNL1        0.1036
     13 N         142.6822  143.7087  159.7563 N.ar    1  UNL1       -0.2100
     14 C         143.8419  142.9035  159.2496 C.ar    1  UNL1        0.2292
     15 C         144.0756  142.7715  157.7739 C.ar    1  UNL1        0.1062
     16 C         143.1496  143.4447  156.8048 C.ar    1  UNL1        0.0123
     17 C         139.3841  147.9620  154.6073 C.3     1  UNL1        0.1321
     18 N         139.8662  146.6295  155.0993 N.ar    1  UNL1       -0.3059
     19 C         139.4118  145.2891  154.6023 C.ar    1  UNL1        0.1786
     20 N         140.1520  144.2346  155.3705 N.ar    1  UNL1       -0.2238
     21 C         141.0639  144.9233  156.3422 C.ar    1  UNL1        0.1017
     22 C         140.8873  146.4034  156.1746 C.ar    1  UNL1        0.0965
     23 C         145.2353  141.9662  157.2672 C.2     1  UNL1        0.2473
     24 N         146.5007  142.6546  156.8492 N.am    1  UNL1       -0.3252
     25 O         145.1295  140.4726  157.1786 O.2     1  UNL1       -0.2702
     26 H         146.5702  143.6349  156.9074 H       1  UNL1        0.1453
     27 H         147.2619  142.1260  156.5167 H       1  UNL1        0.1453
     28 C         143.0126  138.3856  165.6398 C.3     1  UNL1        0.1116
     29 C         142.2367  139.2490  166.5898 C.ar    1  UNL1       -0.0129
     30 C         141.0023  139.9599  166.1197 C.ar    1  UNL1       -0.0007
     31 C         140.2264  140.8233  167.0695 C.ar    1  UNL1        0.0369
     32 C         140.6847  140.9759  168.4896 C.ar    1  UNL1        0.1468
     33 C         141.9191  140.2650  168.9597 C.ar    1  UNL1        0.0369
     34 C         142.6950  139.4015  168.0099 C.ar    1  UNL1       -0.0007
     35 O         139.9088  141.8393  169.4396 O.3     1  UNL1       -0.4045
     36 C         140.4223  143.2001  169.8064 C.3     1  UNL1        0.5753
     37 F         140.9358  144.5609  170.1732 F       1  UNL1       -0.1328
     38 F         140.8824  142.6692  171.1317 F       1  UNL1       -0.1328
     39 F         139.9622  143.7310  168.4811 F       1  UNL1       -0.1328
@<TRIPOS>BOND
     1    17    18    1
     2    18    19   ar
     3    19    20   ar
     4    20    21   ar
     5    21    11    1
     6    11    12   ar
     7    12    13   ar
     8    13    14   ar
     9    14    10    1
    10     1    10    1
    11     1     2    1
    12     2     3    1
    13     3     4    1
    14     4     5   am
    15     5     6    2
    16     5    28    1
    17    28    29    1
    18    29    30   ar
    19    30    31   ar
    20    31    32   ar
    21    32    35    1
    22    35    36    1
    23    36    37    1
    24    36    38    1
    25    36    39    1
    26    32    33   ar
    27    33    34   ar
    28     4     7    1
    29     7     8    1
    30     8     9    1
    31    14    15   ar
    32    15    23    1
    33    23    24   am
    34    23    25    2
    35    15    16   ar
    36    21    22   ar
    37    22    18   ar
    38    16    11   ar
    39     8     1    1
    40    34    29   ar
    41    24    26    1
    42    24    27    1
@<TRIPOS>MOLECULE
*****
 39 42 0 0 0
SMALL
GASTEIGER

@<TRIPOS>ATOM
      1 C         139.8938  140.9121  158.6736 C.3     1  UNL1        0.2032
      2 C         139.6728  139.8303  159.6889 C.3     1  UNL1        0.0680
      3 C         139.0006  140.1499  160.9912 C.3     1  UNL1        0.0973
      4 N         138.5493  141.5513  161.2782 N.am    1  UNL1       -0.2762
      5 C         137.8771  141.8709  162.5804 C.2     1  UNL1        0.2301
      6 O         137.4257  143.2723  162.8674 O.2     1  UNL1       -0.2745
      7 C         138.7702  142.6331  160.2628 C.3     1  UNL1        0.1323
      8 C         139.4424  142.3135  158.9606 C.3     1  UNL1        0.2202
      9 F         139.6634  143.3953  157.9452 F       1  UNL1       -0.2316
     10 O         140.5660  140.5925  157.3713 O.3     1  UNL1       -0.4609
     11 C         141.8919  136.3820  156.4974 C.ar    1  UNL1        0.0387
     12 C         140.5125  136.8288  156.1135 C.ar    1  UNL1        0.1036
     13 N         140.0705  138.2323  156.4048 N.ar    1  UNL1       -0.2100
     14 C         141.0080  139.1889  157.0800 C.ar    1  UNL1        0.2292
     15 C         142.3874  138.7421  157.4640 C.ar    1  UNL1        0.1062
     16 C         142.8294  137.3386  157.1727 C.ar    1  UNL1        0.0123
     17 C         144.8133  131.9922  156.2212 C.3     1  UNL1        0.1321
     18 N         143.6767  132.9607  156.0791 N.ar    1  UNL1       -0.3059
     19 C         142.3513  132.6767  155.4365 C.ar    1  UNL1        0.1786
     20 N         141.5215  133.9237  155.5150 N.ar    1  UNL1       -0.2238
     21 C         142.3339  134.9784  156.2061 C.ar    1  UNL1        0.1017
     22 C         143.6659  134.3832  156.5547 C.ar    1  UNL1        0.0965
     23 C         143.3249  139.6987  158.1392 C.2     1  UNL1        0.2473
     24 N         143.8891  139.3689  159.4893 N.am    1  UNL1       -0.3252
     25 O         143.6982  140.9853  157.4644 O.2     1  UNL1       -0.2702
     26 H         143.6441  138.5245  159.9323 H       1  UNL1        0.1453
     27 H         144.5044  139.9967  159.9325 H       1  UNL1        0.1453
     28 C         137.6561  140.7891  163.5957 C.3     1  UNL1        0.1116
     29 C         138.4418  140.7880  164.8736 C.ar    1  UNL1       -0.0129
     30 C         138.3224  139.6357  165.8264 C.ar    1  UNL1       -0.0007
     31 C         139.1080  139.6346  167.1042 C.ar    1  UNL1        0.0369
     32 C         140.0130  140.7858  167.4292 C.ar    1  UNL1        0.1468
     33 C         140.1323  141.9382  166.4764 C.ar    1  UNL1        0.0369
     34 C         139.3467  141.9393  165.1986 C.ar    1  UNL1       -0.0007
     35 O         140.7986  140.7848  168.7070 O.3     1  UNL1       -0.4045
     36 C         140.2152  140.1720  169.9456 C.3     1  UNL1        0.5753
     37 F         139.6318  139.5591  171.1842 F       1  UNL1       -0.1328
     38 F         139.1345  141.2121  169.9512 F       1  UNL1       -0.1328
     39 F         141.2959  139.1318  169.9400 F       1  UNL1       -0.1328
@<TRIPOS>BOND
     1    17    18    1
     2    18    19   ar
     3    19    20   ar
     4    20    21   ar
     5    21    11    1
     6    11    12   ar
     7    12    13   ar
     8    13    14   ar
     9    14    10    1
    10     1    10    1
    11     1     2    1
    12     2     3    1
    13     3     4    1
    14     4     5   am
    15     5     6    2
    16     5    28    1
    17    28    29    1
    18    29    30   ar
    19    30    31   ar
    20    31    32   ar
    21    32    35    1
    22    35    36    1
    23    36    37    1
    24    36    38    1
    25    36    39    1
    26    32    33   ar
    27    33    34   ar
    28     4     7    1
    29     7     8    1
    30     8     9    1
    31    14    15   ar
    32    15    23    1
    33    23    24   am
    34    23    25    2
    35    15    16   ar
    36    21    22   ar
    37    22    18   ar
    38    16    11   ar
    39     8     1    1
    40    34    29   ar
    41    24    26    1
    42    24    27    1
