@<TRIPOS>MOLECULE
*****
 25 28 0 0 0
SMALL
GASTEIGER

@<TRIPOS>ATOM
      1 C         140.8010  139.6714  163.2482 C.ar    1  UNL1        0.1710
      2 N         139.4557  140.1294  162.7680 N.ar    1  UNL1       -0.1958
      3 C         138.4114  140.5553  163.7569 C.ar    1  UNL1        0.2150
      4 N         137.0661  141.0133  163.2767 N.pl3   1  UNL1       -0.3274
      5 N         138.7123  140.5232  165.2261 N.ar    1  UNL1       -0.2106
      6 C         140.0575  140.0653  165.7063 C.ar    1  UNL1        0.1259
      7 C         141.1019  139.6394  164.7174 C.ar    1  UNL1        0.1962
      8 O         142.3284  139.2387  165.4822 O.2     1  UNL1       -0.4317
      9 C         142.0422  139.4170  166.9438 C.ar    1  UNL1        0.2314
     10 N         142.8782  139.1801  168.1665 N.ar    1  UNL1       -0.2089
     11 C         142.3107  139.4541  169.5277 C.ar    1  UNL1        0.1134
     12 C         140.9072  139.9650  169.6662 C.ar    1  UNL1        0.0771
     13 CL        140.3397  140.2390  171.0274 Cl      1  UNL1       -0.0806
     14 C         140.0712  140.2018  168.4435 C.ar    1  UNL1        0.0192
     15 C         140.6387  139.9278  167.0824 C.ar    1  UNL1        0.0753
     16 H         136.8686  141.0343  162.3125 H       1  UNL1        0.1452
     17 H         136.3807  141.2928  163.9258 H       1  UNL1        0.1452
     18 C         143.3013  139.1934  160.3182 C.3     1  UNL1        0.0758
     19 C         143.6033  137.9868  161.1567 C.3     1  UNL1        0.0389
     20 C         142.7034  138.0191  162.3564 C.3     1  UNL1        0.0937
     21 N         141.8453  139.2456  162.2593 N.pl3   1  UNL1       -0.2893
     22 C         142.2148  139.9713  160.9996 C.3     1  UNL1        0.1079
     23 C         143.9388  140.9770  158.5399 C.3     1  UNL1        0.0859
     24 N         143.9687  139.5580  159.0253 N.3     1  UNL1       -0.2960
     25 H         144.9509  139.2990  159.1176 H       1  UNL1        0.1233
@<TRIPOS>BOND
     1    23    24    1
     2    18    24    1
     3    18    19    1
     4    19    20    1
     5    20    21    1
     6    21     1    1
     7     1     2   ar
     8     2     3   ar
     9     3     4    1
    10     3     5   ar
    11     5     6   ar
    12     6     7   ar
    13     7     8   ar
    14     8     9   ar
    15     9    10   ar
    16    10    11   ar
    17    11    12   ar
    18    12    13    1
    19    12    14   ar
    20    14    15   ar
    21    21    22    1
    22    22    18    1
    23     7     1   ar
    24    15     9   ar
    25    15     6   ar
    26    24    25    1
    27     4    16    1
    28     4    17    1
@<TRIPOS>MOLECULE
*****
 25 28 0 0 0
SMALL
GASTEIGER

@<TRIPOS>ATOM
      1 C         139.6429  142.1272  163.4308 C.ar    1  UNL1        0.1710
      2 N         139.1255  140.9248  162.6984 N.ar    1  UNL1       -0.1958
      3 C         138.8161  139.6644  163.4503 C.ar    1  UNL1        0.2150
      4 N         138.2986  138.4619  162.7179 N.pl3   1  UNL1       -0.3274
      5 N         139.0240  139.6063  164.9347 N.ar    1  UNL1       -0.2106
      6 C         139.5414  140.8087  165.6672 C.ar    1  UNL1        0.1259
      7 C         139.8509  142.0692  164.9152 C.ar    1  UNL1        0.1962
      8 O         140.3448  143.0870  165.9001 O.2     1  UNL1       -0.4317
      9 C         140.3406  142.4556  167.2607 C.ar    1  UNL1        0.2314
     10 N         140.7247  142.9809  168.6122 N.ar    1  UNL1       -0.2089
     11 C         140.6123  142.0982  169.8197 C.ar    1  UNL1        0.1134
     12 C         140.1158  140.6901  169.6757 C.ar    1  UNL1        0.0771
     13 CL        140.0034  139.8073  170.8833 Cl      1  UNL1       -0.0806
     14 C         139.7316  140.1648  168.3243 C.ar    1  UNL1        0.0192
     15 C         139.8440  141.0475  167.1168 C.ar    1  UNL1        0.0753
     16 H         138.1621  138.4999  161.7436 H       1  UNL1        0.1452
     17 H         138.0955  137.6346  163.2114 H       1  UNL1        0.1452
     18 C         140.9056  144.9490  161.0838 C.3     1  UNL1        0.0758
     19 C         139.9515  145.7058  161.9596 C.3     1  UNL1        0.0389
     20 C         139.3624  144.7408  162.9455 C.3     1  UNL1        0.0937
     21 N         139.9524  143.3877  162.6788 N.pl3   1  UNL1       -0.2893
     22 C         140.9061  143.5164  161.5283 C.3     1  UNL1        0.1079
     23 C         141.1761  145.5103  158.5615 C.3     1  UNL1        0.0859
     24 N         141.7167  145.5239  159.9606 N.3     1  UNL1       -0.2960
     25 H         141.8971  146.4996  160.1971 H       1  UNL1        0.1233
@<TRIPOS>BOND
     1    23    24    1
     2    18    24    1
     3    18    19    1
     4    19    20    1
     5    20    21    1
     6    21     1    1
     7     1     2   ar
     8     2     3   ar
     9     3     4    1
    10     3     5   ar
    11     5     6   ar
    12     6     7   ar
    13     7     8   ar
    14     8     9   ar
    15     9    10   ar
    16    10    11   ar
    17    11    12   ar
    18    12    13    1
    19    12    14   ar
    20    14    15   ar
    21    21    22    1
    22    22    18    1
    23     7     1   ar
    24    15     9   ar
    25    15     6   ar
    26    24    25    1
    27     4    16    1
    28     4    17    1
@<TRIPOS>MOLECULE
*****
 25 28 0 0 0
SMALL
GASTEIGER

@<TRIPOS>ATOM
      1 C         142.1731  140.7513  163.2704 C.ar    1  UNL1        0.1710
      2 N         141.7611  139.3923  162.7874 N.ar    1  UNL1       -0.1958
      3 C         141.6061  138.2644  163.7641 C.ar    1  UNL1        0.2150
      4 N         141.1941  136.9053  163.2812 N.pl3   1  UNL1       -0.3274
      5 N         141.8633  138.4956  165.2237 N.ar    1  UNL1       -0.2106
      6 C         142.2753  139.8546  165.7067 C.ar    1  UNL1        0.1259
      7 C         142.4303  140.9824  164.7300 C.ar    1  UNL1        0.1962
      8 O         142.8456  142.2041  165.4949 O.2     1  UNL1       -0.4317
      9 C         142.9473  141.8313  166.9442 C.ar    1  UNL1        0.2314
     10 N         143.3153  142.6264  168.1617 N.ar    1  UNL1       -0.2089
     11 C         143.3309  141.9695  169.5100 C.ar    1  UNL1        0.1134
     12 C         142.9785  140.5174  169.6410 C.ar    1  UNL1        0.0771
     13 CL        142.9941  139.8604  170.9894 Cl      1  UNL1       -0.0806
     14 C         142.6105  139.7222  168.4235 C.ar    1  UNL1        0.0192
     15 C         142.5949  140.3792  167.0752 C.ar    1  UNL1        0.0753
     16 H         141.0253  136.7536  162.3232 H       1  UNL1        0.1452
     17 H         141.0924  136.1651  163.9222 H       1  UNL1        0.1452
     18 C         142.0363  144.0017  161.1534 C.3     1  UNL1        0.0758
     19 C         143.0968  143.2278  160.4280 C.3     1  UNL1        0.0389
     20 C         143.2772  141.9159  161.1327 C.3     1  UNL1        0.0937
     21 N         142.3281  141.8792  162.2937 N.pl3   1  UNL1       -0.2893
     22 C         141.5611  143.1682  162.3065 C.3     1  UNL1        0.1079
     23 C         140.1974  145.8329  161.2764 C.3     1  UNL1        0.0859
     24 N         141.5382  145.3690  160.7897 N.3     1  UNL1       -0.2960
     25 H         142.2257  146.0358  161.1406 H       1  UNL1        0.1233
@<TRIPOS>BOND
     1    23    24    1
     2    18    24    1
     3    18    19    1
     4    19    20    1
     5    20    21    1
     6    21     1    1
     7     1     2   ar
     8     2     3   ar
     9     3     4    1
    10     3     5   ar
    11     5     6   ar
    12     6     7   ar
    13     7     8   ar
    14     8     9   ar
    15     9    10   ar
    16    10    11   ar
    17    11    12   ar
    18    12    13    1
    19    12    14   ar
    20    14    15   ar
    21    21    22    1
    22    22    18    1
    23     7     1   ar
    24    15     9   ar
    25    15     6   ar
    26    24    25    1
    27     4    16    1
    28     4    17    1
@<TRIPOS>MOLECULE
*****
 25 28 0 0 0
SMALL
GASTEIGER

@<TRIPOS>ATOM
      1 C         141.0028  139.2744  163.6017 C.ar    1  UNL1        0.1710
      2 N         142.3807  139.2868  163.0091 N.ar    1  UNL1       -0.1958
      3 C         143.5733  139.5194  163.8886 C.ar    1  UNL1        0.2150
      4 N         144.9513  139.5317  163.2959 N.pl3   1  UNL1       -0.3274
      5 N         143.3880  139.7396  165.3607 N.ar    1  UNL1       -0.2106
      6 C         142.0101  139.7273  165.9534 C.ar    1  UNL1        0.1259
      7 C         140.8175  139.4947  165.0739 C.ar    1  UNL1        0.1962
      8 O         139.5907  139.5370  165.9359 O.2     1  UNL1       -0.4317
      9 C         140.0251  139.7957  167.3481 C.ar    1  UNL1        0.2314
     10 N         139.2522  139.9394  168.6256 N.ar    1  UNL1       -0.2089
     11 C         139.9747  140.2006  169.9139 C.ar    1  UNL1        0.1134
     12 C         141.4700  140.3183  169.9247 C.ar    1  UNL1        0.0771
     13 CL        142.1925  140.5796  171.2131 Cl      1  UNL1       -0.0806
     14 C         142.2429  140.1746  168.6472 C.ar    1  UNL1        0.0192
     15 C         141.5204  139.9133  167.3589 C.ar    1  UNL1        0.0753
     16 H         145.0729  139.3872  162.3297 H       1  UNL1        0.1452
     17 H         145.7340  139.6844  163.8732 H       1  UNL1        0.1452
     18 C         138.1479  139.2964  160.9722 C.3     1  UNL1        0.0758
     19 C         137.8018  138.0714  161.7655 C.3     1  UNL1        0.0389
     20 C         138.8291  137.9140  162.8472 C.3     1  UNL1        0.0937
     21 N         139.8101  139.0419  162.7222 N.pl3   1  UNL1       -0.2893
     22 C         139.3892  139.8962  161.5634 C.3     1  UNL1        0.1079
     23 C         138.1125  140.5396  158.6911 C.3     1  UNL1        0.0859
     24 N         137.3866  139.8283  159.7943 N.3     1  UNL1       -0.2960
     25 H         136.9099  139.0334  159.3684 H       1  UNL1        0.1233
@<TRIPOS>BOND
     1    23    24    1
     2    18    24    1
     3    18    19    1
     4    19    20    1
     5    20    21    1
     6    21     1    1
     7     1     2   ar
     8     2     3   ar
     9     3     4    1
    10     3     5   ar
    11     5     6   ar
    12     6     7   ar
    13     7     8   ar
    14     8     9   ar
    15     9    10   ar
    16    10    11   ar
    17    11    12   ar
    18    12    13    1
    19    12    14   ar
    20    14    15   ar
    21    21    22    1
    22    22    18    1
    23     7     1   ar
    24    15     9   ar
    25    15     6   ar
    26    24    25    1
    27     4    16    1
    28     4    17    1
@<TRIPOS>MOLECULE
*****
 25 28 0 0 0
SMALL
GASTEIGER

@<TRIPOS>ATOM
      1 C         139.4981  142.3113  162.7195 C.ar    1  UNL1        0.1710
      2 N         139.9735  143.6656  162.2839 N.ar    1  UNL1       -0.1958
      3 C         140.5453  144.6193  163.2906 C.ar    1  UNL1        0.2150
      4 N         141.0207  145.9737  162.8551 N.pl3   1  UNL1       -0.3274
      5 N         140.6418  144.2186  164.7329 N.ar    1  UNL1       -0.2106
      6 C         140.1665  142.8643  165.1685 C.ar    1  UNL1        0.1259
      7 C         139.5946  141.9106  164.1618 C.ar    1  UNL1        0.1962
      8 O         139.2099  140.6523  164.8819 O.2     1  UNL1       -0.4317
      9 C         139.5440  140.8282  166.3336 C.ar    1  UNL1        0.2314
     10 N         139.3862  139.9202  167.5171 N.ar    1  UNL1       -0.2089
     11 C         139.8197  140.3793  168.8776 C.ar    1  UNL1        0.1134
     12 C         140.4109  141.7465  169.0548 C.ar    1  UNL1        0.0771
     13 CL        140.8444  142.2056  170.4155 Cl      1  UNL1       -0.0806
     14 C         140.5687  142.6545  167.8713 C.ar    1  UNL1        0.0192
     15 C         140.1352  142.1954  166.5108 C.ar    1  UNL1        0.0753
     16 H         140.9574  146.2367  161.9084 H       1  UNL1        0.1452
     17 H         141.3961  146.5997  163.5158 H       1  UNL1        0.1452
     18 C         138.6343  140.0116  159.7144 C.3     1  UNL1        0.0758
     19 C         137.4581  139.7683  160.6130 C.3     1  UNL1        0.0389
     20 C         137.6386  140.6002  161.8482 C.3     1  UNL1        0.0937
     21 N         138.9263  141.3576  161.7128 N.pl3   1  UNL1       -0.2893
     22 C         139.5416  140.9938  160.3941 C.3     1  UNL1        0.1079
     23 C         139.9550  138.3703  158.1940 C.3     1  UNL1        0.0859
     24 N         138.8629  139.3831  158.3718 N.3     1  UNL1       -0.2960
     25 H         137.9905  138.9246  158.1089 H       1  UNL1        0.1233
@<TRIPOS>BOND
     1    23    24    1
     2    18    24    1
     3    18    19    1
     4    19    20    1
     5    20    21    1
     6    21     1    1
     7     1     2   ar
     8     2     3   ar
     9     3     4    1
    10     3     5   ar
    11     5     6   ar
    12     6     7   ar
    13     7     8   ar
    14     8     9   ar
    15     9    10   ar
    16    10    11   ar
    17    11    12   ar
    18    12    13    1
    19    12    14   ar
    20    14    15   ar
    21    21    22    1
    22    22    18    1
    23     7     1   ar
    24    15     9   ar
    25    15     6   ar
    26    24    25    1
    27     4    16    1
    28     4    17    1
@<TRIPOS>MOLECULE
*****
 25 28 0 0 0
SMALL
GASTEIGER

@<TRIPOS>ATOM
      1 C         143.9897  142.4107  160.6107 C.ar    1  UNL1        0.1710
      2 N         145.1250  141.9828  161.4927 N.ar    1  UNL1       -0.1958
      3 C         145.0127  142.1251  162.9817 C.ar    1  UNL1        0.2150
      4 N         146.1481  141.6972  163.8638 N.pl3   1  UNL1       -0.3274
      5 N         143.7651  142.6953  163.5887 N.ar    1  UNL1       -0.2106
      6 C         142.6298  143.1232  162.7066 C.ar    1  UNL1        0.1259
      7 C         142.7421  142.9809  161.2176 C.ar    1  UNL1        0.1962
      8 O         141.4684  143.4849  160.6065 O.2     1  UNL1       -0.4317
      9 C         140.5689  143.9388  161.7178 C.ar    1  UNL1        0.2314
     10 N         139.1889  144.5267  161.7155 N.ar    1  UNL1       -0.2089
     11 C         138.5268  144.8910  163.0111 C.ar    1  UNL1        0.1134
     12 C         139.2446  144.6675  164.3091 C.ar    1  UNL1        0.0771
     13 CL        138.5824  145.0318  165.6048 Cl      1  UNL1       -0.0806
     14 C         140.6246  144.0795  164.3114 C.ar    1  UNL1        0.0192
     15 C         141.2867  143.7152  163.0158 C.ar    1  UNL1        0.0753
     16 H         146.9669  141.3230  163.4654 H       1  UNL1        0.1452
     17 H         146.0744  141.7906  164.8411 H       1  UNL1        0.1452
     18 C         144.9657  142.3402  156.8546 C.3     1  UNL1        0.0758
     19 C         143.5839  141.7586  156.8060 C.3     1  UNL1        0.0389
     20 C         143.0501  141.7143  158.2072 C.3     1  UNL1        0.0937
     21 N         144.1021  142.2684  159.1217 N.pl3   1  UNL1       -0.2893
     22 C         145.2860  142.6552  158.2858 C.3     1  UNL1        0.1079
     23 C         147.3348  142.8013  155.8929 C.3     1  UNL1        0.0859
     24 N         145.8688  142.5669  155.6786 N.3     1  UNL1       -0.2960
     25 H         145.7864  141.7442  155.0812 H       1  UNL1        0.1233
@<TRIPOS>BOND
     1    23    24    1
     2    18    24    1
     3    18    19    1
     4    19    20    1
     5    20    21    1
     6    21     1    1
     7     1     2   ar
     8     2     3   ar
     9     3     4    1
    10     3     5   ar
    11     5     6   ar
    12     6     7   ar
    13     7     8   ar
    14     8     9   ar
    15     9    10   ar
    16    10    11   ar
    17    11    12   ar
    18    12    13    1
    19    12    14   ar
    20    14    15   ar
    21    21    22    1
    22    22    18    1
    23     7     1   ar
    24    15     9   ar
    25    15     6   ar
    26    24    25    1
    27     4    16    1
    28     4    17    1
@<TRIPOS>MOLECULE
*****
 25 28 0 0 0
SMALL
GASTEIGER

@<TRIPOS>ATOM
      1 C         142.3264  141.1897  162.4424 C.ar    1  UNL1        0.1710
      2 N         143.0959  140.1612  161.6678 N.ar    1  UNL1       -0.1958
      3 C         143.7088  138.9909  162.3783 C.ar    1  UNL1        0.2150
      4 N         144.4784  137.9623  161.6037 N.pl3   1  UNL1       -0.3274
      5 N         143.5522  138.8492  163.8633 N.ar    1  UNL1       -0.2106
      6 C         142.7827  139.8777  164.6379 C.ar    1  UNL1        0.1259
      7 C         142.1698  141.0480  163.9274 C.ar    1  UNL1        0.1962
      8 O         141.4719  141.8965  164.9486 O.2     1  UNL1       -0.4317
      9 C         141.6534  141.2506  166.2903 C.ar    1  UNL1        0.2314
     10 N         141.1857  141.6375  167.6619 N.ar    1  UNL1       -0.2089
     11 C         141.5281  140.7766  168.8416 C.ar    1  UNL1        0.1134
     12 C         142.3383  139.5289  168.6495 C.ar    1  UNL1        0.0771
     13 CL        142.6807  138.6680  169.8293 Cl      1  UNL1       -0.0806
     14 C         142.8060  139.1420  167.2779 C.ar    1  UNL1        0.0192
     15 C         142.4636  140.0029  166.0982 C.ar    1  UNL1        0.0753
     16 H         144.5812  138.0554  160.6290 H       1  UNL1        0.1452
     17 H         144.8806  137.1942  162.0700 H       1  UNL1        0.1452
     18 C         141.4439  144.3493  160.3678 C.3     1  UNL1        0.0758
     19 C         140.0968  143.9725  160.9093 C.3     1  UNL1        0.0389
     20 C         140.2634  142.7430  161.7524 C.3     1  UNL1        0.0937
     21 N         141.7135  142.3600  161.7319 N.pl3   1  UNL1       -0.2893
     22 C         142.4431  143.3527  160.8761 C.3     1  UNL1        0.1079
     23 C         140.9716  145.7003  158.1995 C.3     1  UNL1        0.0859
     24 N         141.7399  145.5175  159.4747 N.3     1  UNL1       -0.2960
     25 H         141.5908  146.3590  160.0315 H       1  UNL1        0.1233
@<TRIPOS>BOND
     1    23    24    1
     2    18    24    1
     3    18    19    1
     4    19    20    1
     5    20    21    1
     6    21     1    1
     7     1     2   ar
     8     2     3   ar
     9     3     4    1
    10     3     5   ar
    11     5     6   ar
    12     6     7   ar
    13     7     8   ar
    14     8     9   ar
    15     9    10   ar
    16    10    11   ar
    17    11    12   ar
    18    12    13    1
    19    12    14   ar
    20    14    15   ar
    21    21    22    1
    22    22    18    1
    23     7     1   ar
    24    15     9   ar
    25    15     6   ar
    26    24    25    1
    27     4    16    1
    28     4    17    1
@<TRIPOS>MOLECULE
*****
 25 28 0 0 0
SMALL
GASTEIGER

@<TRIPOS>ATOM
      1 C         141.1708  140.2547  163.7312 C.ar    1  UNL1        0.1710
      2 N         142.3380  139.3404  163.5039 N.ar    1  UNL1       -0.1958
      3 C         143.3028  139.6189  162.3897 C.ar    1  UNL1        0.2150
      4 N         144.4701  138.7046  162.1623 N.pl3   1  UNL1       -0.3274
      5 N         143.1005  140.8116  161.5028 N.ar    1  UNL1       -0.2106
      6 C         141.9333  141.7258  161.7301 C.ar    1  UNL1        0.1259
      7 C         140.9684  141.4474  162.8444 C.ar    1  UNL1        0.1962
      8 O         139.9182  142.5183  162.8265 O.2     1  UNL1       -0.4317
      9 C         140.2340  143.4586  161.7013 C.ar    1  UNL1        0.2314
     10 N         139.5485  144.6974  161.2061 N.ar    1  UNL1       -0.2089
     11 C         140.1083  145.4465  160.0334 C.ar    1  UNL1        0.1134
     12 C         141.3537  144.9567  159.3557 C.ar    1  UNL1        0.0771
     13 CL        141.9135  145.7059  158.1829 Cl      1  UNL1       -0.0806
     14 C         142.0392  143.7179  159.8509 C.ar    1  UNL1        0.0192
     15 C         141.4794  142.9688  161.0236 C.ar    1  UNL1        0.0753
     16 H         144.6030  137.9218  162.7443 H       1  UNL1        0.1452
     17 H         145.1034  138.8873  161.4309 H       1  UNL1        0.1452
     18 C         139.2487  139.7275  167.0619 C.3     1  UNL1        0.0758
     19 C         138.1935  139.3680  166.0583 C.3     1  UNL1        0.0389
     20 C         138.7851  139.5217  164.6884 C.3     1  UNL1        0.0937
     21 N         140.2059  139.9763  164.8455 N.pl3   1  UNL1       -0.2893
     22 C         140.4925  140.1035  166.3123 C.3     1  UNL1        0.1079
     23 C         140.2433  140.0856  169.4352 C.3     1  UNL1        0.0859
     24 N         139.0884  139.7136  168.5532 N.3     1  UNL1       -0.2960
     25 H         138.3297  140.3586  168.7738 H       1  UNL1        0.1233
@<TRIPOS>BOND
     1    23    24    1
     2    18    24    1
     3    18    19    1
     4    19    20    1
     5    20    21    1
     6    21     1    1
     7     1     2   ar
     8     2     3   ar
     9     3     4    1
    10     3     5   ar
    11     5     6   ar
    12     6     7   ar
    13     7     8   ar
    14     8     9   ar
    15     9    10   ar
    16    10    11   ar
    17    11    12   ar
    18    12    13    1
    19    12    14   ar
    20    14    15   ar
    21    21    22    1
    22    22    18    1
    23     7     1   ar
    24    15     9   ar
    25    15     6   ar
    26    24    25    1
    27     4    16    1
    28     4    17    1
@<TRIPOS>MOLECULE
*****
 25 28 0 0 0
SMALL
GASTEIGER

@<TRIPOS>ATOM
      1 C         143.6279  141.6067  160.8437 C.ar    1  UNL1        0.1710
      2 N         144.8430  141.3861  161.6949 N.ar    1  UNL1       -0.1958
      3 C         144.8463  141.8314  163.1273 C.ar    1  UNL1        0.2150
      4 N         146.0615  141.6107  163.9786 N.pl3   1  UNL1       -0.3274
      5 N         143.6343  142.4973  163.7084 N.ar    1  UNL1       -0.2106
      6 C         142.4191  142.7179  162.8572 C.ar    1  UNL1        0.1259
      7 C         142.4159  142.2726  161.4248 C.ar    1  UNL1        0.1962
      8 O         141.0821  142.6218  160.8339 O.2     1  UNL1       -0.4317
      9 C         140.2611  143.2830  161.9011 C.ar    1  UNL1        0.2314
     10 N         138.8678  143.8385  161.8957 N.ar    1  UNL1       -0.2089
     11 C         138.3008  144.4535  163.1408 C.ar    1  UNL1        0.1134
     12 C         139.1271  144.5129  164.3912 C.ar    1  UNL1        0.0771
     13 CL        138.5601  145.1279  165.6364 Cl      1  UNL1       -0.0806
     14 C         140.5204  143.9573  164.3966 C.ar    1  UNL1        0.0192
     15 C         141.0874  143.3423  163.1515 C.ar    1  UNL1        0.0753
     16 H         146.8570  141.1737  163.5972 H       1  UNL1        0.1452
     17 H         146.0636  141.9030  164.9187 H       1  UNL1        0.1452
     18 C         143.6368  139.7602  157.4297 C.3     1  UNL1        0.0758
     19 C         143.6026  141.1922  156.9845 C.3     1  UNL1        0.0389
     20 C         143.5951  142.0583  158.2093 C.3     1  UNL1        0.0937
     21 N         143.6246  141.1614  159.4113 N.pl3   1  UNL1       -0.2893
     22 C         143.6504  139.7411  158.9295 C.3     1  UNL1        0.1079
     23 C         142.6768  137.4423  156.7544 C.3     1  UNL1        0.0859
     24 N         143.6543  138.5582  156.5325 N.3     1  UNL1       -0.2960
     25 H         143.5030  138.8976  155.5826 H       1  UNL1        0.1233
@<TRIPOS>BOND
     1    23    24    1
     2    18    24    1
     3    18    19    1
     4    19    20    1
     5    20    21    1
     6    21     1    1
     7     1     2   ar
     8     2     3   ar
     9     3     4    1
    10     3     5   ar
    11     5     6   ar
    12     6     7   ar
    13     7     8   ar
    14     8     9   ar
    15     9    10   ar
    16    10    11   ar
    17    11    12   ar
    18    12    13    1
    19    12    14   ar
    20    14    15   ar
    21    21    22    1
    22    22    18    1
    23     7     1   ar
    24    15     9   ar
    25    15     6   ar
    26    24    25    1
    27     4    16    1
    28     4    17    1
