@<TRIPOS>MOLECULE
*****
 41 45 0 0 0
SMALL
GASTEIGER

@<TRIPOS>ATOM
      1 C         140.9715  140.2094  165.2674 C.3     1  UNL1        0.0776
      2 C         142.5638  139.6424  163.2942 C.ar    1  UNL1        0.2211
      3 N         142.8997  139.7145  161.8341 N.ar    1  UNL1       -0.2119
      4 C         141.9794  140.4258  160.8870 C.ar    1  UNL1        0.0843
      5 C         142.3153  140.4979  159.4269 C.ar    1  UNL1        0.0189
      6 C         141.3950  141.2092  158.4798 C.ar    1  UNL1       -0.0014
      7 C         140.1387  141.8484  158.9928 C.ar    1  UNL1       -0.0060
      8 C         139.8027  141.7763  160.4529 C.ar    1  UNL1       -0.0014
      9 C         140.7231  141.0650  161.4000 C.ar    1  UNL1        0.0173
     10 C         140.3871  140.9929  162.8601 C.ar    1  UNL1        0.0022
     11 C         141.3075  140.2816  163.8072 C.ar    1  UNL1        0.0373
     12 C         144.8999  139.3990  164.4048 C.3     1  UNL1        0.2542
     13 O         143.4841  138.9311  164.2414 O.3     1  UNL1       -0.4563
     14 C         139.2183  142.5597  158.0456 C.3     1  UNL1        0.0992
     15 N         139.5763  143.9236  157.5343 N.3     1  UNL1       -0.2665
     16 C         139.2624  144.2993  156.1164 C.3     1  UNL1        0.0899
     17 C         140.2483  144.9119  158.4407 C.3     1  UNL1        0.0899
     18 C         139.8590  139.3201  165.7379 C.ar    1  UNL1       -0.0157
     19 C         139.5799  138.0287  165.0279 C.ar    1  UNL1       -0.0039
     20 C         138.4673  137.1393  165.4985 C.ar    1  UNL1       -0.0003
     21 C         137.6340  137.5415  166.6791 C.ar    1  UNL1       -0.0000
     22 C         137.9131  138.8330  167.3891 C.ar    1  UNL1       -0.0003
     23 C         139.0257  139.7223  166.9186 C.ar    1  UNL1       -0.0039
     24 C         141.7481  141.0266  166.2569 C.3     1  UNL1        0.1158
     25 O         142.3157  139.7706  166.8487 O.3     1  UNL1       -0.3820
     26 H         141.9203  139.0000  166.4119 H       1  UNL1        0.2107
     27 C         141.1805  142.2826  165.6651 C.ar    1  UNL1        0.0024
     28 C         139.7460  142.6459  165.9110 C.ar    1  UNL1       -0.0020
     29 C         139.1785  143.9019  165.3193 C.ar    1  UNL1       -0.0002
     30 C         140.0452  144.7946  164.4815 C.ar    1  UNL1       -0.0000
     31 C         141.4796  144.4313  164.2356 C.ar    1  UNL1       -0.0002
     32 C         142.3464  145.3241  163.3979 C.ar    1  UNL1       -0.0000
     33 C         143.7809  144.9607  163.1520 C.ar    1  UNL1       -0.0000
     34 C         144.3484  143.7047  163.7438 C.ar    1  UNL1       -0.0000
     35 C         143.4817  142.8120  164.5815 C.ar    1  UNL1       -0.0002
     36 C         142.0473  143.1753  164.8274 C.ar    1  UNL1       -0.0018
     37 C         142.5246  141.8437  167.2464 C.3     1  UNL1        0.0491
     38 C         142.5859  141.4210  168.6843 C.3     1  UNL1        0.0750
     39 N         141.3191  141.1555  169.4426 N.3     1  UNL1       -0.2702
     40 C         141.0952  139.8180  170.0837 C.3     1  UNL1        0.0897
     41 C         140.2764  142.2273  169.5597 C.3     1  UNL1        0.0897
@<TRIPOS>BOND
     1    12    13    1
     2    13     2    1
     3     2     3   ar
     4     3     4   ar
     5     4     5   ar
     6     5     6   ar
     7     6     7   ar
     8     7    14    1
     9    14    15    1
    10    15    16    1
    11    15    17    1
    12     7     8   ar
    13     8     9   ar
    14     9    10   ar
    15    10    11   ar
    16    11     1    1
    17     1    18    1
    18    18    19   ar
    19    19    20   ar
    20    20    21   ar
    21    21    22   ar
    22    22    23   ar
    23     1    24    1
    24    24    25    1
    25    24    37    1
    26    37    38    1
    27    38    39    1
    28    39    40    1
    29    39    41    1
    30    24    27    1
    31    27    28   ar
    32    28    29   ar
    33    29    30   ar
    34    30    31   ar
    35    31    32   ar
    36    32    33   ar
    37    33    34   ar
    38    34    35   ar
    39    35    36   ar
    40    11     2   ar
    41    23    18   ar
    42    36    27   ar
    43     9     4   ar
    44    36    31   ar
    45    25    26    1
@<TRIPOS>MOLECULE
*****
 41 45 0 0 0
SMALL
GASTEIGER

@<TRIPOS>ATOM
      1 C         140.8959  140.3364  165.6792 C.3     1  UNL1        0.0776
      2 C         143.0849  139.8134  164.3813 C.ar    1  UNL1        0.2211
      3 N         143.8340  139.7105  163.0858 N.ar    1  UNL1       -0.2119
      4 C         143.1431  140.0276  161.7927 C.ar    1  UNL1        0.0843
      5 C         143.8922  139.9246  160.4972 C.ar    1  UNL1        0.0189
      6 C         143.2013  140.2417  159.2042 C.ar    1  UNL1       -0.0014
      7 C         141.7613  140.6618  159.2066 C.ar    1  UNL1       -0.0060
      8 C         141.0122  140.7647  160.5020 C.ar    1  UNL1       -0.0014
      9 C         141.7031  140.4476  161.7951 C.ar    1  UNL1        0.0173
     10 C         140.9541  140.5506  163.0906 C.ar    1  UNL1        0.0022
     11 C         141.6450  140.2335  164.3837 C.ar    1  UNL1        0.0373
     12 C         143.7688  138.0929  166.2040 C.3     1  UNL1        0.2542
     13 O         143.7759  139.4963  165.6744 O.3     1  UNL1       -0.4563
     14 C         141.0704  140.9789  157.9134 C.3     1  UNL1        0.0992
     15 N         139.6928  141.5723  157.9249 N.3     1  UNL1       -0.2665
     16 C         138.4912  140.6805  157.8209 C.3     1  UNL1        0.0899
     17 C         139.5169  143.0574  158.0405 C.3     1  UNL1        0.0899
     18 C         139.7943  139.3662  165.9877 C.ar    1  UNL1       -0.0157
     19 C         138.8323  139.6533  167.1022 C.ar    1  UNL1       -0.0039
     20 C         137.7307  138.6831  167.4107 C.ar    1  UNL1       -0.0003
     21 C         137.5911  137.4258  166.6047 C.ar    1  UNL1       -0.0000
     22 C         138.5530  137.1387  165.4901 C.ar    1  UNL1       -0.0003
     23 C         139.6547  138.1089  165.1816 C.ar    1  UNL1       -0.0039
     24 C         141.2484  141.4095  166.6662 C.3     1  UNL1        0.1158
     25 O         141.7757  140.3690  167.6091 O.3     1  UNL1       -0.3820
     26 H         141.6214  139.4869  167.2364 H       1  UNL1        0.2107
     27 C         140.7212  142.4500  165.7232 C.ar    1  UNL1        0.0024
     28 C         139.2427  142.5905  165.5117 C.ar    1  UNL1       -0.0020
     29 C         138.7155  143.6310  164.5688 C.ar    1  UNL1       -0.0002
     30 C         139.6665  144.5311  163.8372 C.ar    1  UNL1       -0.0000
     31 C         141.1449  144.3907  164.0486 C.ar    1  UNL1       -0.0002
     32 C         142.0960  145.2908  163.3170 C.ar    1  UNL1       -0.0000
     33 C         143.5744  145.1504  163.5284 C.ar    1  UNL1       -0.0000
     34 C         144.1017  144.1099  164.4714 C.ar    1  UNL1       -0.0000
     35 C         143.1506  143.2098  165.2030 C.ar    1  UNL1       -0.0002
     36 C         141.6722  143.3502  164.9916 C.ar    1  UNL1       -0.0018
     37 C         141.6010  142.4826  167.6531 C.3     1  UNL1        0.0491
     38 C         141.2632  142.3075  169.1041 C.3     1  UNL1        0.0750
     39 N         142.3129  141.8376  170.0671 N.3     1  UNL1       -0.2702
     40 C         143.7361  142.2810  169.9004 C.3     1  UNL1        0.0897
     41 C         141.9394  140.9242  171.1968 C.3     1  UNL1        0.0897
@<TRIPOS>BOND
     1    12    13    1
     2    13     2    1
     3     2     3   ar
     4     3     4   ar
     5     4     5   ar
     6     5     6   ar
     7     6     7   ar
     8     7    14    1
     9    14    15    1
    10    15    16    1
    11    15    17    1
    12     7     8   ar
    13     8     9   ar
    14     9    10   ar
    15    10    11   ar
    16    11     1    1
    17     1    18    1
    18    18    19   ar
    19    19    20   ar
    20    20    21   ar
    21    21    22   ar
    22    22    23   ar
    23     1    24    1
    24    24    25    1
    25    24    37    1
    26    37    38    1
    27    38    39    1
    28    39    40    1
    29    39    41    1
    30    24    27    1
    31    27    28   ar
    32    28    29   ar
    33    29    30   ar
    34    30    31   ar
    35    31    32   ar
    36    32    33   ar
    37    33    34   ar
    38    34    35   ar
    39    35    36   ar
    40    11     2   ar
    41    23    18   ar
    42    36    27   ar
    43     9     4   ar
    44    36    31   ar
    45    25    26    1
@<TRIPOS>MOLECULE
*****
 41 45 0 0 0
SMALL
GASTEIGER

@<TRIPOS>ATOM
      1 C         140.1935  140.9311  165.3006 C.3     1  UNL1        0.0776
      2 C         139.0825  142.5702  163.6186 C.ar    1  UNL1        0.2211
      3 N         138.9877  143.1479  162.2376 N.ar    1  UNL1       -0.2119
      4 C         139.9094  142.6643  161.1574 C.ar    1  UNL1        0.0843
      5 C         139.8147  143.2421  159.7764 C.ar    1  UNL1        0.0189
      6 C         140.7363  142.7584  158.6963 C.ar    1  UNL1       -0.0014
      7 C         141.7526  141.6971  158.9972 C.ar    1  UNL1       -0.0060
      8 C         141.8474  141.1194  160.3782 C.ar    1  UNL1       -0.0014
      9 C         140.9258  141.6030  161.4583 C.ar    1  UNL1        0.0173
     10 C         141.0205  141.0253  162.8394 C.ar    1  UNL1        0.0022
     11 C         140.0988  141.5089  163.9195 C.ar    1  UNL1        0.0373
     12 C         137.9644  144.5253  164.9139 C.3     1  UNL1        0.2542
     13 O         138.1608  143.0538  164.6988 O.3     1  UNL1       -0.4563
     14 C         142.6743  141.2135  157.9170 C.3     1  UNL1        0.0992
     15 N         143.7436  142.1193  157.3823 N.3     1  UNL1       -0.2665
     16 C         143.6543  142.6374  155.9774 C.3     1  UNL1        0.0899
     17 C         144.9023  142.5071  158.2524 C.3     1  UNL1        0.0899
     18 C         139.4050  139.7058  165.6567 C.ar    1  UNL1       -0.0157
     19 C         139.4932  138.4807  164.7957 C.ar    1  UNL1       -0.0039
     20 C         138.7046  137.2554  165.1518 C.ar    1  UNL1       -0.0003
     21 C         137.8278  137.2552  166.3688 C.ar    1  UNL1       -0.0000
     22 C         137.7396  138.4804  167.2298 C.ar    1  UNL1       -0.0003
     23 C         138.5281  139.7057  166.8738 C.ar    1  UNL1       -0.0039
     24 C         141.0768  141.5787  166.3255 C.3     1  UNL1        0.1158
     25 O         139.9533  142.4924  166.7164 O.3     1  UNL1       -0.3820
     26 H         139.1916  142.3347  166.1368 H       1  UNL1        0.2107
     27 C         142.2003  140.6650  165.9346 C.ar    1  UNL1        0.0024
     28 C         142.2141  139.2446  166.4167 C.ar    1  UNL1       -0.0020
     29 C         143.3376  138.3309  166.0258 C.ar    1  UNL1       -0.0002
     30 C         144.4473  138.8375  165.1529 C.ar    1  UNL1       -0.0000
     31 C         144.4335  140.2578  164.6708 C.ar    1  UNL1       -0.0002
     32 C         145.5431  140.7644  163.7979 C.ar    1  UNL1       -0.0000
     33 C         145.5292  142.1848  163.3158 C.ar    1  UNL1       -0.0000
     34 C         144.4057  143.0985  163.7067 C.ar    1  UNL1       -0.0000
     35 C         143.2961  142.5919  164.5796 C.ar    1  UNL1       -0.0002
     36 C         143.3099  141.1716  165.0617 C.ar    1  UNL1       -0.0018
     37 C         141.9600  142.2263  167.3504 C.3     1  UNL1        0.0491
     38 C         141.8110  141.8720  168.8003 C.3     1  UNL1        0.0750
     39 N         140.6310  142.3751  169.5779 N.3     1  UNL1       -0.2702
     40 C         140.4909  143.8410  169.8636 C.3     1  UNL1        0.0897
     41 C         139.5912  141.4124  170.0698 C.3     1  UNL1        0.0897
@<TRIPOS>BOND
     1    12    13    1
     2    13     2    1
     3     2     3   ar
     4     3     4   ar
     5     4     5   ar
     6     5     6   ar
     7     6     7   ar
     8     7    14    1
     9    14    15    1
    10    15    16    1
    11    15    17    1
    12     7     8   ar
    13     8     9   ar
    14     9    10   ar
    15    10    11   ar
    16    11     1    1
    17     1    18    1
    18    18    19   ar
    19    19    20   ar
    20    20    21   ar
    21    21    22   ar
    22    22    23   ar
    23     1    24    1
    24    24    25    1
    25    24    37    1
    26    37    38    1
    27    38    39    1
    28    39    40    1
    29    39    41    1
    30    24    27    1
    31    27    28   ar
    32    28    29   ar
    33    29    30   ar
    34    30    31   ar
    35    31    32   ar
    36    32    33   ar
    37    33    34   ar
    38    34    35   ar
    39    35    36   ar
    40    11     2   ar
    41    23    18   ar
    42    36    27   ar
    43     9     4   ar
    44    36    31   ar
    45    25    26    1
@<TRIPOS>MOLECULE
*****
 41 45 0 0 0
SMALL
GASTEIGER

@<TRIPOS>ATOM
      1 C         140.5971  141.3883  166.3012 C.3     1  UNL1        0.0776
      2 C         139.9014  143.2867  164.6696 C.ar    1  UNL1        0.2211
      3 N         139.7514  143.8075  163.2710 N.ar    1  UNL1       -0.2119
      4 C         140.1471  142.9505  162.1051 C.ar    1  UNL1        0.0843
      5 C         139.9972  143.4713  160.7065 C.ar    1  UNL1        0.0189
      6 C         140.3929  142.6144  159.5407 C.ar    1  UNL1       -0.0014
      7 C         140.9385  141.2367  159.7736 C.ar    1  UNL1       -0.0060
      8 C         141.0885  140.7159  161.1722 C.ar    1  UNL1       -0.0014
      9 C         140.6928  141.5729  162.3380 C.ar    1  UNL1        0.0173
     10 C         140.8428  141.0521  163.7367 C.ar    1  UNL1        0.0022
     11 C         140.4471  141.9090  164.9025 C.ar    1  UNL1        0.0373
     12 C         138.3334  145.0723  165.7200 C.3     1  UNL1        0.2542
     13 O         139.5057  144.1436  165.8355 O.3     1  UNL1       -0.4563
     14 C         141.3342  140.3798  158.6077 C.3     1  UNL1        0.0992
     15 N         140.5268  140.4133  157.3440 N.3     1  UNL1       -0.2665
     16 C         139.1739  139.7669  157.3010 C.3     1  UNL1        0.0899
     17 C         141.0722  141.0933  156.1233 C.3     1  UNL1        0.0899
     18 C         139.5796  140.4390  166.8612 C.ar    1  UNL1       -0.0157
     19 C         139.3552  140.3682  168.3426 C.ar    1  UNL1       -0.0039
     20 C         138.3377  139.4189  168.9026 C.ar    1  UNL1       -0.0003
     21 C         137.5446  138.5403  167.9811 C.ar    1  UNL1       -0.0000
     22 C         137.7690  138.6111  166.4996 C.ar    1  UNL1       -0.0003
     23 C         138.7864  139.5604  165.9397 C.ar    1  UNL1       -0.0039
     24 C         141.7645  141.8168  167.1400 C.3     1  UNL1        0.1158
     25 O         140.8969  142.8262  167.8317 O.3     1  UNL1       -0.3820
     26 H         140.0141  142.8233  167.4298 H       1  UNL1        0.2107
     27 C         142.6320  140.8074  166.4482 C.ar    1  UNL1        0.0024
     28 C         142.5488  139.3593  166.8306 C.ar    1  UNL1       -0.0020
     29 C         143.4163  138.3500  166.1389 C.ar    1  UNL1       -0.0002
     30 C         144.3670  138.7886  165.0648 C.ar    1  UNL1       -0.0000
     31 C         144.4502  140.2366  164.6823 C.ar    1  UNL1       -0.0002
     32 C         145.4009  140.6753  163.6082 C.ar    1  UNL1       -0.0000
     33 C         145.4841  142.1234  163.2258 C.ar    1  UNL1       -0.0000
     34 C         144.6166  143.1327  163.9176 C.ar    1  UNL1       -0.0000
     35 C         143.6659  142.6941  164.9917 C.ar    1  UNL1       -0.0002
     36 C         143.5827  141.2461  165.3741 C.ar    1  UNL1       -0.0018
     37 C         142.9319  142.2454  167.9787 C.3     1  UNL1        0.0491
     38 C         142.7335  142.5723  169.4291 C.3     1  UNL1        0.0750
     39 N         142.1768  141.5378  170.3618 N.3     1  UNL1       -0.2702
     40 C         140.9808  141.8575  171.2088 C.3     1  UNL1        0.0897
     41 C         142.8162  140.1836  170.4475 C.3     1  UNL1        0.0897
@<TRIPOS>BOND
     1    12    13    1
     2    13     2    1
     3     2     3   ar
     4     3     4   ar
     5     4     5   ar
     6     5     6   ar
     7     6     7   ar
     8     7    14    1
     9    14    15    1
    10    15    16    1
    11    15    17    1
    12     7     8   ar
    13     8     9   ar
    14     9    10   ar
    15    10    11   ar
    16    11     1    1
    17     1    18    1
    18    18    19   ar
    19    19    20   ar
    20    20    21   ar
    21    21    22   ar
    22    22    23   ar
    23     1    24    1
    24    24    25    1
    25    24    37    1
    26    37    38    1
    27    38    39    1
    28    39    40    1
    29    39    41    1
    30    24    27    1
    31    27    28   ar
    32    28    29   ar
    33    29    30   ar
    34    30    31   ar
    35    31    32   ar
    36    32    33   ar
    37    33    34   ar
    38    34    35   ar
    39    35    36   ar
    40    11     2   ar
    41    23    18   ar
    42    36    27   ar
    43     9     4   ar
    44    36    31   ar
    45    25    26    1
@<TRIPOS>MOLECULE
*****
 41 45 0 0 0
SMALL
GASTEIGER

@<TRIPOS>ATOM
      1 C         140.5606  140.7189  162.1321 C.3     1  UNL1        0.0776
      2 C         138.7751  139.6491  163.6869 C.ar    1  UNL1        0.2211
      3 N         138.2664  139.3465  165.0652 N.ar    1  UNL1       -0.2119
      4 C         139.0345  139.8111  166.2670 C.ar    1  UNL1        0.0843
      5 C         138.5258  139.5085  167.6452 C.ar    1  UNL1        0.0189
      6 C         139.2940  139.9730  168.8469 C.ar    1  UNL1       -0.0014
      7 C         140.5708  140.7402  168.6704 C.ar    1  UNL1       -0.0060
      8 C         141.0795  141.0428  167.2921 C.ar    1  UNL1       -0.0014
      9 C         140.3114  140.5782  166.0904 C.ar    1  UNL1        0.0173
     10 C         140.8201  140.8808  164.7121 C.ar    1  UNL1        0.0022
     11 C         140.0519  140.4163  163.5104 C.ar    1  UNL1        0.0373
     12 C         138.2123  137.7968  161.9542 C.3     1  UNL1        0.2542
     13 O         138.0070  139.1846  162.4851 O.3     1  UNL1       -0.4563
     14 C         141.3389  141.2047  169.8722 C.3     1  UNL1        0.0992
     15 N         141.6060  142.6671  170.0723 N.3     1  UNL1       -0.2665
     16 C         140.5192  143.6695  169.8193 C.3     1  UNL1        0.0899
     17 C         142.9599  143.1271  170.5255 C.3     1  UNL1        0.0899
     18 C         141.7552  139.9870  161.5960 C.ar    1  UNL1       -0.0157
     19 C         142.4742  140.5086  160.3874 C.ar    1  UNL1       -0.0039
     20 C         143.6688  139.7767  159.8514 C.ar    1  UNL1       -0.0003
     21 C         144.1443  138.5231  160.5240 C.ar    1  UNL1       -0.0000
     22 C         143.4253  138.0014  161.7327 C.ar    1  UNL1       -0.0003
     23 C         142.2307  138.7334  162.2688 C.ar    1  UNL1       -0.0039
     24 C         139.8748  141.7534  161.2898 C.3     1  UNL1        0.1158
     25 O         139.3592  140.6743  160.3844 O.3     1  UNL1       -0.3820
     26 H         139.7138  139.8173  160.6682 H       1  UNL1        0.2107
     27 C         140.3903  142.8324  162.1952 C.ar    1  UNL1        0.0024
     28 C         141.8029  143.3174  162.0554 C.ar    1  UNL1       -0.0020
     29 C         142.3185  144.3965  162.9608 C.ar    1  UNL1       -0.0002
     30 C         141.4215  144.9905  164.0062 C.ar    1  UNL1       -0.0000
     31 C         140.0091  144.5054  164.1461 C.ar    1  UNL1       -0.0002
     32 C         139.1122  145.0994  165.1914 C.ar    1  UNL1       -0.0000
     33 C         137.6996  144.6144  165.3313 C.ar    1  UNL1       -0.0000
     34 C         137.1840  143.5353  164.4258 C.ar    1  UNL1       -0.0000
     35 C         138.0810  142.9413  163.3805 C.ar    1  UNL1       -0.0002
     36 C         139.4934  143.4264  163.2406 C.ar    1  UNL1       -0.0018
     37 C         139.1889  142.7878  160.4476 C.3     1  UNL1        0.0491
     38 C         139.5103  142.8989  158.9866 C.3     1  UNL1        0.0750
     39 N         139.8875  144.2273  158.4006 N.3     1  UNL1       -0.2702
     40 C         139.7884  144.4493  156.9204 C.3     1  UNL1        0.0897
     41 C         140.3638  145.3334  159.2947 C.3     1  UNL1        0.0897
@<TRIPOS>BOND
     1    12    13    1
     2    13     2    1
     3     2     3   ar
     4     3     4   ar
     5     4     5   ar
     6     5     6   ar
     7     6     7   ar
     8     7    14    1
     9    14    15    1
    10    15    16    1
    11    15    17    1
    12     7     8   ar
    13     8     9   ar
    14     9    10   ar
    15    10    11   ar
    16    11     1    1
    17     1    18    1
    18    18    19   ar
    19    19    20   ar
    20    20    21   ar
    21    21    22   ar
    22    22    23   ar
    23     1    24    1
    24    24    25    1
    25    24    37    1
    26    37    38    1
    27    38    39    1
    28    39    40    1
    29    39    41    1
    30    24    27    1
    31    27    28   ar
    32    28    29   ar
    33    29    30   ar
    34    30    31   ar
    35    31    32   ar
    36    32    33   ar
    37    33    34   ar
    38    34    35   ar
    39    35    36   ar
    40    11     2   ar
    41    23    18   ar
    42    36    27   ar
    43     9     4   ar
    44    36    31   ar
    45    25    26    1
@<TRIPOS>MOLECULE
*****
 41 45 0 0 0
SMALL
GASTEIGER

@<TRIPOS>ATOM
      1 C         140.7848  141.0972  164.0648 C.3     1  UNL1        0.0776
      2 C         139.5350  141.9130  161.9382 C.ar    1  UNL1        0.2211
      3 N         139.4837  142.0917  160.4498 N.ar    1  UNL1       -0.2119
      4 C         140.6311  141.6330  159.5993 C.ar    1  UNL1        0.0843
      5 C         140.5798  141.8116  158.1109 C.ar    1  UNL1        0.0189
      6 C         141.7272  141.3530  157.2606 C.ar    1  UNL1       -0.0014
      7 C         142.9259  140.7157  157.8987 C.ar    1  UNL1       -0.0060
      8 C         142.9771  140.5371  159.3871 C.ar    1  UNL1       -0.0014
      9 C         141.8298  140.9957  160.2374 C.ar    1  UNL1        0.0173
     10 C         141.8810  140.8171  161.7259 C.ar    1  UNL1        0.0022
     11 C         140.7336  141.2758  162.5763 C.ar    1  UNL1        0.0373
     12 C         137.9029  143.7881  162.6937 C.3     1  UNL1        0.2542
     13 O         138.3875  142.3717  162.7886 O.3     1  UNL1       -0.4563
     14 C         144.0733  140.2571  157.0482 C.3     1  UNL1        0.0992
     15 N         143.9869  138.9530  156.3122 N.3     1  UNL1       -0.2665
     16 C         144.8624  138.7055  155.1195 C.3     1  UNL1        0.0899
     17 C         143.0251  137.8963  156.7687 C.3     1  UNL1        0.0899
     18 C         139.9519  140.0369  164.7220 C.ar    1  UNL1       -0.0157
     19 C         140.1887  138.5909  164.4012 C.ar    1  UNL1       -0.0039
     20 C         139.3557  137.5307  165.0584 C.ar    1  UNL1       -0.0003
     21 C         138.2859  137.9164  166.0365 C.ar    1  UNL1       -0.0000
     22 C         138.0490  139.3624  166.3573 C.ar    1  UNL1       -0.0003
     23 C         138.8820  140.4227  165.7001 C.ar    1  UNL1       -0.0039
     24 C         141.6690  141.9788  164.8959 C.3     1  UNL1        0.1158
     25 O         141.0020  143.1920  164.3187 O.3     1  UNL1       -0.3820
     26 H         140.3601  142.9182  163.6449 H       1  UNL1        0.2107
     27 C         142.3360  140.7656  165.4732 C.ar    1  UNL1        0.0024
     28 C         143.2055  139.9039  164.6063 C.ar    1  UNL1       -0.0020
     29 C         143.8725  138.6907  165.1836 C.ar    1  UNL1       -0.0002
     30 C         143.6701  138.3392  166.6277 C.ar    1  UNL1       -0.0000
     31 C         142.8006  139.2009  167.4946 C.ar    1  UNL1       -0.0002
     32 C         142.5982  138.8495  168.9387 C.ar    1  UNL1       -0.0000
     33 C         141.7287  139.7113  169.8056 C.ar    1  UNL1       -0.0000
     34 C         141.0617  140.9244  169.2283 C.ar    1  UNL1       -0.0000
     35 C         141.2641  141.2759  167.7842 C.ar    1  UNL1       -0.0002
     36 C         142.1336  140.4142  166.9173 C.ar    1  UNL1       -0.0018
     37 C         142.5532  142.8604  165.7271 C.3     1  UNL1        0.0491
     38 C         143.9068  143.2589  165.2181 C.3     1  UNL1        0.0750
     39 N         144.0672  143.7292  163.8027 N.3     1  UNL1       -0.2702
     40 C         143.6120  145.1043  163.4131 C.3     1  UNL1        0.0897
     41 C         144.6827  142.8243  162.7769 C.3     1  UNL1        0.0897
@<TRIPOS>BOND
     1    12    13    1
     2    13     2    1
     3     2     3   ar
     4     3     4   ar
     5     4     5   ar
     6     5     6   ar
     7     6     7   ar
     8     7    14    1
     9    14    15    1
    10    15    16    1
    11    15    17    1
    12     7     8   ar
    13     8     9   ar
    14     9    10   ar
    15    10    11   ar
    16    11     1    1
    17     1    18    1
    18    18    19   ar
    19    19    20   ar
    20    20    21   ar
    21    21    22   ar
    22    22    23   ar
    23     1    24    1
    24    24    25    1
    25    24    37    1
    26    37    38    1
    27    38    39    1
    28    39    40    1
    29    39    41    1
    30    24    27    1
    31    27    28   ar
    32    28    29   ar
    33    29    30   ar
    34    30    31   ar
    35    31    32   ar
    36    32    33   ar
    37    33    34   ar
    38    34    35   ar
    39    35    36   ar
    40    11     2   ar
    41    23    18   ar
    42    36    27   ar
    43     9     4   ar
    44    36    31   ar
    45    25    26    1
@<TRIPOS>MOLECULE
*****
 41 45 0 0 0
SMALL
GASTEIGER

@<TRIPOS>ATOM
      1 C         141.7296  141.9326  163.9276 C.3     1  UNL1        0.0776
      2 C         143.5730  142.6905  162.2609 C.ar    1  UNL1        0.2211
      3 N         144.0045  143.0185  160.8623 N.ar    1  UNL1       -0.2119
      4 C         143.0242  142.9164  159.7315 C.ar    1  UNL1        0.0843
      5 C         143.4557  143.2444  158.3329 C.ar    1  UNL1        0.0189
      6 C         142.4754  143.1423  157.2022 C.ar    1  UNL1       -0.0014
      7 C         141.0635  142.7124  157.4701 C.ar    1  UNL1       -0.0060
      8 C         140.6320  142.3844  158.8688 C.ar    1  UNL1       -0.0014
      9 C         141.6123  142.4865  159.9995 C.ar    1  UNL1        0.0173
     10 C         141.1808  142.1585  161.3982 C.ar    1  UNL1        0.0022
     11 C         142.1611  142.2605  162.5289 C.ar    1  UNL1        0.0373
     12 C         145.6841  141.8123  163.4947 C.3     1  UNL1        0.2542
     13 O         144.5533  142.7925  163.3917 O.3     1  UNL1       -0.4563
     14 C         140.0832  142.6103  156.3394 C.3     1  UNL1        0.0992
     15 N         139.0026  143.6397  156.1884 N.3     1  UNL1       -0.2665
     16 C         139.3611  145.0912  156.0674 C.3     1  UNL1        0.0899
     17 C         137.5636  143.2176  156.1583 C.3     1  UNL1        0.0899
     18 C         142.2290  140.6846  164.5933 C.ar    1  UNL1       -0.0157
     19 C         141.9246  139.3428  163.9962 C.ar    1  UNL1       -0.0039
     20 C         142.4240  138.0948  164.6619 C.ar    1  UNL1       -0.0003
     21 C         143.2278  138.1887  165.9249 C.ar    1  UNL1       -0.0000
     22 C         143.5322  139.5307  166.5221 C.ar    1  UNL1       -0.0003
     23 C         143.0328  140.7786  165.8563 C.ar    1  UNL1       -0.0039
     24 C         140.7988  142.8525  164.6604 C.3     1  UNL1        0.1158
     25 O         141.6999  144.0110  164.3508 O.3     1  UNL1       -0.3820
     26 H         142.4902  143.6912  163.8882 H       1  UNL1        0.2107
     27 C         139.8977  141.6941  164.9701 C.ar    1  UNL1        0.0024
     28 C         139.1331  141.0230  163.8677 C.ar    1  UNL1       -0.0020
     29 C         138.2320  139.8646  164.1774 C.ar    1  UNL1       -0.0002
     30 C         138.0953  139.3771  165.5894 C.ar    1  UNL1       -0.0000
     31 C         138.8598  140.0481  166.6917 C.ar    1  UNL1       -0.0002
     32 C         138.7232  139.5607  168.1037 C.ar    1  UNL1       -0.0000
     33 C         139.4878  140.2318  169.2061 C.ar    1  UNL1       -0.0000
     34 C         140.3889  141.3903  168.8964 C.ar    1  UNL1       -0.0000
     35 C         140.5255  141.8777  167.4844 C.ar    1  UNL1       -0.0002
     36 C         139.7610  141.2067  166.3821 C.ar    1  UNL1       -0.0018
     37 C         139.8679  143.7725  165.3933 C.3     1  UNL1        0.0491
     38 C         139.3021  144.9758  164.6992 C.3     1  UNL1        0.0750
     39 N         138.9039  144.8907  163.2554 N.3     1  UNL1       -0.2702
     40 C         137.7540  144.0196  162.8447 C.3     1  UNL1        0.0897
     41 C         139.6557  145.6767  162.2225 C.3     1  UNL1        0.0897
@<TRIPOS>BOND
     1    12    13    1
     2    13     2    1
     3     2     3   ar
     4     3     4   ar
     5     4     5   ar
     6     5     6   ar
     7     6     7   ar
     8     7    14    1
     9    14    15    1
    10    15    16    1
    11    15    17    1
    12     7     8   ar
    13     8     9   ar
    14     9    10   ar
    15    10    11   ar
    16    11     1    1
    17     1    18    1
    18    18    19   ar
    19    19    20   ar
    20    20    21   ar
    21    21    22   ar
    22    22    23   ar
    23     1    24    1
    24    24    25    1
    25    24    37    1
    26    37    38    1
    27    38    39    1
    28    39    40    1
    29    39    41    1
    30    24    27    1
    31    27    28   ar
    32    28    29   ar
    33    29    30   ar
    34    30    31   ar
    35    31    32   ar
    36    32    33   ar
    37    33    34   ar
    38    34    35   ar
    39    35    36   ar
    40    11     2   ar
    41    23    18   ar
    42    36    27   ar
    43     9     4   ar
    44    36    31   ar
    45    25    26    1
@<TRIPOS>MOLECULE
*****
 41 45 0 0 0
SMALL
GASTEIGER

@<TRIPOS>ATOM
      1 C         141.6863  142.4375  162.3114 C.3     1  UNL1        0.0776
      2 C         143.5373  142.5405  164.1317 C.ar    1  UNL1        0.2211
      3 N         143.9411  142.5239  165.5762 N.ar    1  UNL1       -0.2119
      4 C         142.8976  142.3875  166.6451 C.ar    1  UNL1        0.0843
      5 C         143.3014  142.3709  168.0896 C.ar    1  UNL1        0.0189
      6 C         142.2579  142.2346  169.1585 C.ar    1  UNL1       -0.0014
      7 C         140.8107  142.1149  168.7829 C.ar    1  UNL1       -0.0060
      8 C         140.4069  142.1316  167.3384 C.ar    1  UNL1       -0.0014
      9 C         141.4504  142.2679  166.2695 C.ar    1  UNL1        0.0173
     10 C         141.0466  142.2845  164.8249 C.ar    1  UNL1        0.0022
     11 C         142.0901  142.4209  163.7560 C.ar    1  UNL1        0.0373
     12 C         145.8044  141.8098  163.0941 C.3     1  UNL1        0.2542
     13 O         144.5808  142.6768  163.0627 O.3     1  UNL1       -0.4563
     14 C         139.7672  141.9786  169.8518 C.3     1  UNL1        0.0992
     15 N         139.4215  140.6234  170.3940 N.3     1  UNL1       -0.2665
     16 C         140.4462  139.8369  171.1566 C.3     1  UNL1        0.0899
     17 C         138.0511  140.0547  170.1736 C.3     1  UNL1        0.0899
     18 C         141.1193  143.6871  161.7056 C.ar    1  UNL1       -0.0157
     19 C         140.4232  144.6926  162.5740 C.ar    1  UNL1       -0.0039
     20 C         139.8562  145.9422  161.9681 C.ar    1  UNL1       -0.0003
     21 C         139.9853  146.1862  160.4938 C.ar    1  UNL1       -0.0000
     22 C         140.6814  145.1807  159.6252 C.ar    1  UNL1       -0.0003
     23 C         141.2484  143.9311  160.2311 C.ar    1  UNL1       -0.0039
     24 C         141.8495  141.2047  161.4728 C.3     1  UNL1        0.1158
     25 O         143.1709  141.7152  160.9795 O.3     1  UNL1       -0.3820
     26 H         143.3292  142.6023  161.3385 H       1  UNL1        0.2107
     27 C         140.5282  140.6941  161.9661 C.ar    1  UNL1        0.0024
     28 C         139.2542  141.3238  161.4859 C.ar    1  UNL1       -0.0020
     29 C         137.9329  140.8133  161.9792 C.ar    1  UNL1       -0.0002
     30 C         137.8855  139.6731  162.9528 C.ar    1  UNL1       -0.0000
     31 C         139.1594  139.0435  163.4330 C.ar    1  UNL1       -0.0002
     32 C         139.1119  137.9033  164.4065 C.ar    1  UNL1       -0.0000
     33 C         140.3859  137.2737  164.8868 C.ar    1  UNL1       -0.0000
     34 C         141.7073  137.7842  164.3935 C.ar    1  UNL1       -0.0000
     35 C         141.7547  138.9243  163.4199 C.ar    1  UNL1       -0.0002
     36 C         140.4808  139.5540  162.9397 C.ar    1  UNL1       -0.0018
     37 C         142.0128  139.9718  160.6342 C.3     1  UNL1        0.0491
     38 C         143.3491  139.6416  160.0382 C.3     1  UNL1        0.0750
     39 N         143.5045  139.5510  158.5490 N.3     1  UNL1       -0.2702
     40 C         142.8203  138.4536  157.7890 C.3     1  UNL1        0.0897
     41 C         144.3440  140.5577  157.8199 C.3     1  UNL1        0.0897
@<TRIPOS>BOND
     1    12    13    1
     2    13     2    1
     3     2     3   ar
     4     3     4   ar
     5     4     5   ar
     6     5     6   ar
     7     6     7   ar
     8     7    14    1
     9    14    15    1
    10    15    16    1
    11    15    17    1
    12     7     8   ar
    13     8     9   ar
    14     9    10   ar
    15    10    11   ar
    16    11     1    1
    17     1    18    1
    18    18    19   ar
    19    19    20   ar
    20    20    21   ar
    21    21    22   ar
    22    22    23   ar
    23     1    24    1
    24    24    25    1
    25    24    37    1
    26    37    38    1
    27    38    39    1
    28    39    40    1
    29    39    41    1
    30    24    27    1
    31    27    28   ar
    32    28    29   ar
    33    29    30   ar
    34    30    31   ar
    35    31    32   ar
    36    32    33   ar
    37    33    34   ar
    38    34    35   ar
    39    35    36   ar
    40    11     2   ar
    41    23    18   ar
    42    36    27   ar
    43     9     4   ar
    44    36    31   ar
    45    25    26    1
@<TRIPOS>MOLECULE
*****
 41 45 0 0 0
SMALL
GASTEIGER

@<TRIPOS>ATOM
      1 C         140.2594  140.3367  164.2757 C.3     1  UNL1        0.0776
      2 C         141.5966  139.6088  162.1705 C.ar    1  UNL1        0.2211
      3 N         141.6863  139.4398  160.6828 N.ar    1  UNL1       -0.2119
      4 C         140.5284  139.8297  159.8124 C.ar    1  UNL1        0.0843
      5 C         140.6181  139.6606  158.3247 C.ar    1  UNL1        0.0189
      6 C         139.4603  140.0505  157.4545 C.ar    1  UNL1       -0.0014
      7 C         138.2128  140.6095  158.0720 C.ar    1  UNL1       -0.0060
      8 C         138.1231  140.7785  159.5597 C.ar    1  UNL1       -0.0014
      9 C         139.2809  140.3886  160.4299 C.ar    1  UNL1        0.0173
     10 C         139.1912  140.5576  161.9177 C.ar    1  UNL1        0.0022
     11 C         140.3491  140.1677  162.7879 C.ar    1  UNL1        0.0373
     12 C         144.1130  139.8022  162.7874 C.3     1  UNL1        0.2542
     13 O         142.7545  139.2189  163.0408 O.3     1  UNL1       -0.4563
     14 C         137.0549  140.9994  157.2016 C.3     1  UNL1        0.0992
     15 N         137.2922  141.7802  155.9431 N.3     1  UNL1       -0.2665
     16 C         137.1943  141.1009  154.6093 C.3     1  UNL1        0.0899
     17 C         137.6274  143.2403  156.0183 C.3     1  UNL1        0.0899
     18 C         139.4114  139.4025  165.0869 C.ar    1  UNL1       -0.0157
     19 C         139.2453  137.9753  164.6564 C.ar    1  UNL1       -0.0039
     20 C         138.3973  137.0410  165.4676 C.ar    1  UNL1       -0.0003
     21 C         137.7154  137.5340  166.7093 C.ar    1  UNL1       -0.0000
     22 C         137.8814  138.9613  167.1399 C.ar    1  UNL1       -0.0003
     23 C         138.7294  139.8955  166.3287 C.ar    1  UNL1       -0.0039
     24 C         141.0178  141.4400  164.9523 C.3     1  UNL1        0.1158
     25 O         141.9303  140.4281  165.5794 O.3     1  UNL1       -0.3820
     26 H         141.6295  139.5351  165.3496 H       1  UNL1        0.2107
     27 C         140.1052  142.4518  164.3251 C.ar    1  UNL1        0.0024
     28 C         138.7317  142.6728  164.8863 C.ar    1  UNL1       -0.0020
     29 C         137.8192  143.6847  164.2592 C.ar    1  UNL1       -0.0002
     30 C         138.2800  144.4756  163.0708 C.ar    1  UNL1       -0.0000
     31 C         139.6534  144.2546  162.5096 C.ar    1  UNL1       -0.0002
     32 C         140.1142  145.0455  161.3213 C.ar    1  UNL1       -0.0000
     33 C         141.4877  144.8245  160.7601 C.ar    1  UNL1       -0.0000
     34 C         142.4002  143.8126  161.3873 C.ar    1  UNL1       -0.0000
     35 C         141.9394  143.0218  162.5756 C.ar    1  UNL1       -0.0002
     36 C         140.5660  143.2427  163.1368 C.ar    1  UNL1       -0.0018
     37 C         141.7761  142.5432  165.6288 C.3     1  UNL1        0.0491
     38 C         142.7685  142.2201  166.7062 C.3     1  UNL1        0.0750
     39 N         142.3701  142.3242  168.1486 N.3     1  UNL1       -0.2702
     40 C         140.9233  142.4647  168.5188 C.3     1  UNL1        0.0897
     41 C         143.4185  142.2878  169.2207 C.3     1  UNL1        0.0897
@<TRIPOS>BOND
     1    12    13    1
     2    13     2    1
     3     2     3   ar
     4     3     4   ar
     5     4     5   ar
     6     5     6   ar
     7     6     7   ar
     8     7    14    1
     9    14    15    1
    10    15    16    1
    11    15    17    1
    12     7     8   ar
    13     8     9   ar
    14     9    10   ar
    15    10    11   ar
    16    11     1    1
    17     1    18    1
    18    18    19   ar
    19    19    20   ar
    20    20    21   ar
    21    21    22   ar
    22    22    23   ar
    23     1    24    1
    24    24    25    1
    25    24    37    1
    26    37    38    1
    27    38    39    1
    28    39    40    1
    29    39    41    1
    30    24    27    1
    31    27    28   ar
    32    28    29   ar
    33    29    30   ar
    34    30    31   ar
    35    31    32   ar
    36    32    33   ar
    37    33    34   ar
    38    34    35   ar
    39    35    36   ar
    40    11     2   ar
    41    23    18   ar
    42    36    27   ar
    43     9     4   ar
    44    36    31   ar
    45    25    26    1
