@<TRIPOS>MOLECULE
*****
 21 24 0 0 0
SMALL
GASTEIGER

@<TRIPOS>ATOM
      1 C         139.4772  139.5532  166.1295 C.ar    1  UNL1        0.1650
      2 N         139.4016  139.7321  167.6168 N.ar    1  UNL1       -0.2279
      3 C         140.5657  140.5772  168.0418 C.ar    1  UNL1        0.0736
      4 C         141.3608  140.9205  166.8171 C.ar    1  UNL1        0.0241
      5 S         140.6880  140.2877  165.6351 S.2     1  UNL1       -0.0561
      6 C         142.6115  141.7421  166.7140 C.3     1  UNL1        0.0347
      7 C         143.3761  142.4233  167.8100 C.3     1  UNL1        0.0113
      8 C         143.0788  142.4510  169.2801 C.3     1  UNL1        0.0443
      9 C         141.9434  141.8045  170.0170 C.2     1  UNL1        0.0692
     10 N         141.7562  141.9082  171.5016 N.2     1  UNL1       -0.1562
     11 N         140.5221  141.1384  171.8681 N.2     1  UNL1       -0.1510
     12 C         139.9465  140.5589  170.6099 C.2     1  UNL1        0.1070
     13 C         140.8250  140.9705  169.4658 C.3     1  UNL1        0.1212
     14 N         138.5115  138.7761  165.2846 N.pl3   1  UNL1       -0.2628
     15 H         137.8788  138.1519  165.7080 H       1  UNL1        0.1570
     16 C         138.5064  139.2982  160.8150 C.ar    1  UNL1        0.0414
     17 C         139.1627  138.0972  161.4291 C.ar    1  UNL1        0.1034
     18 N         139.1644  137.9233  162.9190 N.ar    1  UNL1       -0.2120
     19 C         138.5098  138.9502  163.7948 C.ar    1  UNL1        0.2221
     20 N         137.8536  140.1511  163.1806 N.ar    1  UNL1       -0.2120
     21 C         137.8519  140.3251  161.6908 C.ar    1  UNL1        0.1034
@<TRIPOS>BOND
     1    16    17   ar
     2    17    18   ar
     3    18    19   ar
     4    19    14    1
     5    14     1    1
     6     1     2   ar
     7     2     3   ar
     8     3     4   ar
     9     4     5   ar
    10     4     6    1
    11     6     7    1
    12     7     8    1
    13     8     9    1
    14     9    10    2
    15    10    11    1
    16    11    12    2
    17    12    13    1
    18    19    20   ar
    19    20    21   ar
    20    21    16   ar
    21     5     1   ar
    22    13     9    1
    23    13     3    1
    24    14    15    1
@<TRIPOS>MOLECULE
*****
 21 24 0 0 0
SMALL
GASTEIGER

@<TRIPOS>ATOM
      1 C         143.4044  142.4133  166.1016 C.ar    1  UNL1        0.1650
      2 N         143.3202  142.6254  167.5841 N.ar    1  UNL1       -0.2279
      3 C         142.1233  141.8776  168.0921 C.ar    1  UNL1        0.0736
      4 C         141.4677  141.2033  166.9235 C.ar    1  UNL1        0.0241
      5 S         142.2595  141.5345  165.6932 S.2     1  UNL1       -0.0561
      6 C         140.2415  140.3394  166.9093 C.3     1  UNL1        0.0347
      7 C         139.3681  139.9364  168.0602 C.3     1  UNL1        0.0113
      8 C         139.5051  140.2977  169.5096 C.3     1  UNL1        0.0443
      9 C         140.5494  141.1514  170.1660 C.2     1  UNL1        0.0692
     10 N         140.5759  141.4392  171.6379 N.2     1  UNL1       -0.1562
     11 N         141.7575  142.3202  171.9167 N.2     1  UNL1       -0.1510
     12 C         142.4613  142.5768  170.6171 C.2     1  UNL1        0.1070
     13 C         141.7146  141.8544  169.5351 C.3     1  UNL1        0.1212
     14 N         144.4499  142.9806  165.1877 N.pl3   1  UNL1       -0.2628
     15 H         145.2887  143.3366  165.5603 H       1  UNL1        0.1570
     16 C         143.7525  143.0552  160.7427 C.ar    1  UNL1        0.0414
     17 C         144.8456  142.2029  161.3161 C.ar    1  UNL1        0.1034
     18 N         145.0781  142.1781  162.7978 N.ar    1  UNL1       -0.2120
     19 C         144.2175  143.0055  163.7061 C.ar    1  UNL1        0.2221
     20 N         143.1244  143.8577  163.1325 N.ar    1  UNL1       -0.2120
     21 C         142.8919  143.8825  161.6508 C.ar    1  UNL1        0.1034
@<TRIPOS>BOND
     1    16    17   ar
     2    17    18   ar
     3    18    19   ar
     4    19    14    1
     5    14     1    1
     6     1     2   ar
     7     2     3   ar
     8     3     4   ar
     9     4     5   ar
    10     4     6    1
    11     6     7    1
    12     7     8    1
    13     8     9    1
    14     9    10    2
    15    10    11    1
    16    11    12    2
    17    12    13    1
    18    19    20   ar
    19    20    21   ar
    20    21    16   ar
    21     5     1   ar
    22    13     9    1
    23    13     3    1
    24    14    15    1
@<TRIPOS>MOLECULE
*****
 21 24 0 0 0
SMALL
GASTEIGER

@<TRIPOS>ATOM
      1 C         138.7187  139.5136  166.3255 C.ar    1  UNL1        0.1650
      2 N         138.4587  140.7588  165.5306 N.ar    1  UNL1       -0.2279
      3 C         138.3740  140.3754  164.0829 C.ar    1  UNL1        0.0736
      4 C         138.5816  138.8932  163.9831 C.ar    1  UNL1        0.0241
      5 S         138.7946  138.3605  165.3691 S.2     1  UNL1       -0.0561
      6 C         138.5886  138.0304  162.7561 C.3     1  UNL1        0.0347
      7 C         138.3898  138.4366  161.3260 C.3     1  UNL1        0.0113
      8 C         138.1349  139.8061  160.7695 C.3     1  UNL1        0.0443
      9 C         138.0157  141.1075  161.5059 C.2     1  UNL1        0.0692
     10 N         137.7572  142.4201  160.8275 N.2     1  UNL1       -0.1562
     11 N         137.7039  143.4847  161.8828 N.2     1  UNL1       -0.1510
     12 C         137.9294  142.8300  163.2135 C.2     1  UNL1        0.1070
     13 C         138.1221  141.3608  162.9805 C.3     1  UNL1        0.1212
     14 N         138.8752  139.4351  167.8153 N.pl3   1  UNL1       -0.2628
     15 H         138.1325  139.1064  168.3716 H       1  UNL1        0.1570
     16 C         142.7396  140.7021  169.7416 C.ar    1  UNL1        0.0414
     17 C         142.5987  140.7381  168.2486 C.ar    1  UNL1        0.1034
     18 N         141.3105  140.3157  167.6066 N.ar    1  UNL1       -0.2120
     19 C         140.1633  139.8574  168.4574 C.ar    1  UNL1        0.2221
     20 N         140.3043  139.8214  169.9503 N.ar    1  UNL1       -0.2120
     21 C         141.5925  140.2438  170.5924 C.ar    1  UNL1        0.1034
@<TRIPOS>BOND
     1    16    17   ar
     2    17    18   ar
     3    18    19   ar
     4    19    14    1
     5    14     1    1
     6     1     2   ar
     7     2     3   ar
     8     3     4   ar
     9     4     5   ar
    10     4     6    1
    11     6     7    1
    12     7     8    1
    13     8     9    1
    14     9    10    2
    15    10    11    1
    16    11    12    2
    17    12    13    1
    18    19    20   ar
    19    20    21   ar
    20    21    16   ar
    21     5     1   ar
    22    13     9    1
    23    13     3    1
    24    14    15    1
@<TRIPOS>MOLECULE
*****
 21 24 0 0 0
SMALL
GASTEIGER

@<TRIPOS>ATOM
      1 C         141.9934  141.8329  165.3563 C.ar    1  UNL1        0.1650
      2 N         141.3411  142.5852  166.4781 N.ar    1  UNL1       -0.2279
      3 C         141.5050  141.7802  167.7331 C.ar    1  UNL1        0.0736
      4 C         142.2587  140.5303  167.3869 C.ar    1  UNL1        0.0241
      5 S         142.5606  140.5629  165.9179 S.2     1  UNL1       -0.0561
      6 C         142.6720  139.4067  168.2906 C.3     1  UNL1        0.0347
      7 C         142.4337  139.2554  169.7638 C.3     1  UNL1        0.0113
      8 C         141.7232  140.1904  170.6971 C.3     1  UNL1        0.0443
      9 C         141.0756  141.5076  170.3877 C.2     1  UNL1        0.0692
     10 N         140.3914  142.3546  171.4194 N.2     1  UNL1       -0.1562
     11 N         139.8715  143.5856  170.7379 N.2     1  UNL1       -0.1510
     12 C         140.2344  143.4994  169.2850 C.2     1  UNL1        0.1070
     13 C         140.9785  142.2151  169.0686 C.3     1  UNL1        0.1212
     14 N         142.0659  142.2733  163.9242 N.pl3   1  UNL1       -0.2628
     15 H         142.7496  141.8932  163.3264 H       1  UNL1        0.1570
     16 C         139.1586  145.3314  162.3604 C.ar    1  UNL1        0.0414
     17 C         140.6321  145.6103  162.3247 C.ar    1  UNL1        0.1034
     18 N         141.6012  144.5909  162.8460 N.ar    1  UNL1       -0.2120
     19 C         141.0969  143.2926  163.4030 C.ar    1  UNL1        0.2221
     20 N         139.6234  143.0138  163.4386 N.ar    1  UNL1       -0.2120
     21 C         138.6543  144.0332  162.9173 C.ar    1  UNL1        0.1034
@<TRIPOS>BOND
     1    16    17   ar
     2    17    18   ar
     3    18    19   ar
     4    19    14    1
     5    14     1    1
     6     1     2   ar
     7     2     3   ar
     8     3     4   ar
     9     4     5   ar
    10     4     6    1
    11     6     7    1
    12     7     8    1
    13     8     9    1
    14     9    10    2
    15    10    11    1
    16    11    12    2
    17    12    13    1
    18    19    20   ar
    19    20    21   ar
    20    21    16   ar
    21     5     1   ar
    22    13     9    1
    23    13     3    1
    24    14    15    1
@<TRIPOS>MOLECULE
*****
 21 24 0 0 0
SMALL
GASTEIGER

@<TRIPOS>ATOM
      1 C         140.5301  141.6985  165.1526 C.ar    1  UNL1        0.1650
      2 N         139.8198  141.1359  166.3480 N.ar    1  UNL1       -0.2279
      3 C         140.7091  141.3153  167.5426 C.ar    1  UNL1        0.0736
      4 C         141.9691  141.9888  167.0854 C.ar    1  UNL1        0.0241
      5 S         141.8584  142.2256  165.6083 S.2     1  UNL1       -0.0561
      6 C         143.1657  142.3850  167.8984 C.3     1  UNL1        0.0347
      7 C         143.3980  142.2058  169.3694 C.3     1  UNL1        0.0113
      8 C         142.4909  141.5859  170.3908 C.3     1  UNL1        0.0443
      9 C         141.1276  140.9922  170.1932 C.2     1  UNL1        0.0692
     10 N         140.3157  140.3986  171.3060 N.2     1  UNL1       -0.1562
     11 N         139.0209  139.9113  170.7262 N.2     1  UNL1       -0.1510
     12 C         139.0327  140.2037  169.2550 C.2     1  UNL1        0.1070
     13 C         140.3347  140.8718  168.9256 C.3     1  UNL1        0.1212
     14 N         140.0044  141.7287  163.7481 N.pl3   1  UNL1       -0.2628
     15 H         140.0374  142.5640  163.2280 H       1  UNL1        0.1570
     16 C         138.2761  138.0018  161.9115 C.ar    1  UNL1        0.0414
     17 C         137.6799  139.3408  161.5929 C.ar    1  UNL1        0.1034
     18 N         138.2560  140.5831  162.2051 N.ar    1  UNL1       -0.2120
     19 C         139.4283  140.4865  163.1359 C.ar    1  UNL1        0.2221
     20 N         140.0245  139.1474  163.4545 N.ar    1  UNL1       -0.2120
     21 C         139.4484  137.9051  162.8423 C.ar    1  UNL1        0.1034
@<TRIPOS>BOND
     1    16    17   ar
     2    17    18   ar
     3    18    19   ar
     4    19    14    1
     5    14     1    1
     6     1     2   ar
     7     2     3   ar
     8     3     4   ar
     9     4     5   ar
    10     4     6    1
    11     6     7    1
    12     7     8    1
    13     8     9    1
    14     9    10    2
    15    10    11    1
    16    11    12    2
    17    12    13    1
    18    19    20   ar
    19    20    21   ar
    20    21    16   ar
    21     5     1   ar
    22    13     9    1
    23    13     3    1
    24    14    15    1
@<TRIPOS>MOLECULE
*****
 21 24 0 0 0
SMALL
GASTEIGER

@<TRIPOS>ATOM
      1 C         141.2942  141.7391  165.2140 C.ar    1  UNL1        0.1650
      2 N         140.3971  141.1592  166.2670 N.ar    1  UNL1       -0.2279
      3 C         141.0717  141.3297  167.5959 C.ar    1  UNL1        0.0736
      4 C         142.3858  142.0150  167.3640 C.ar    1  UNL1        0.0241
      5 S         142.5233  142.2680  165.8919 S.2     1  UNL1       -0.0561
      6 C         143.4258  142.4083  168.3708 C.3     1  UNL1        0.0347
      7 C         143.4088  142.2136  169.8580 C.3     1  UNL1        0.0113
      8 C         142.3474  141.5773  170.7058 C.3     1  UNL1        0.0443
      9 C         141.0409  140.9787  170.2757 C.2     1  UNL1        0.0692
     10 N         140.0578  140.3681  171.2299 N.2     1  UNL1       -0.1562
     11 N         138.8824  139.8806  170.4356 N.2     1  UNL1       -0.1510
     12 C         139.1392  140.1898  168.9905 C.2     1  UNL1        0.1070
     13 C         140.4732  140.8685  168.8916 C.3     1  UNL1        0.1212
     14 N         141.0119  141.7825  163.7414 N.pl3   1  UNL1       -0.2628
     15 H         141.0430  140.9546  163.2096 H       1  UNL1        0.1570
     16 C         140.0228  145.6970  161.7543 C.ar    1  UNL1        0.0414
     17 C         139.1786  145.1976  162.8893 C.ar    1  UNL1        0.1034
     18 N         139.5084  143.8928  163.5516 N.ar    1  UNL1       -0.2120
     19 C         140.6822  143.0873  163.0790 C.ar    1  UNL1        0.2221
     20 N         141.5263  143.5867  161.9440 N.ar    1  UNL1       -0.2120
     21 C         141.1965  144.8915  161.2817 C.ar    1  UNL1        0.1034
@<TRIPOS>BOND
     1    16    17   ar
     2    17    18   ar
     3    18    19   ar
     4    19    14    1
     5    14     1    1
     6     1     2   ar
     7     2     3   ar
     8     3     4   ar
     9     4     5   ar
    10     4     6    1
    11     6     7    1
    12     7     8    1
    13     8     9    1
    14     9    10    2
    15    10    11    1
    16    11    12    2
    17    12    13    1
    18    19    20   ar
    19    20    21   ar
    20    21    16   ar
    21     5     1   ar
    22    13     9    1
    23    13     3    1
    24    14    15    1
@<TRIPOS>MOLECULE
*****
 21 24 0 0 0
SMALL
GASTEIGER

@<TRIPOS>ATOM
      1 C         141.2516  142.7632  165.0775 C.ar    1  UNL1        0.1650
      2 N         141.1824  142.6352  166.5705 N.ar    1  UNL1       -0.2279
      3 C         140.2295  141.5236  166.8967 C.ar    1  UNL1        0.0736
      4 C         139.7099  140.9646  165.6053 C.ar    1  UNL1        0.0241
      5 S         140.3415  141.7308  164.4810 S.2     1  UNL1       -0.0561
      6 C         138.7346  139.8443  165.3964 C.3     1  UNL1        0.0347
      7 C         138.0381  139.0062  166.4271 C.3     1  UNL1        0.0113
      8 C         138.1448  139.0815  167.9215 C.3     1  UNL1        0.0443
      9 C         138.9745  140.0135  168.7541 C.2     1  UNL1        0.0692
     10 N         138.9933  139.9869  170.2537 N.2     1  UNL1       -0.1562
     11 N         139.9328  141.0574  170.7244 N.2     1  UNL1       -0.1510
     12 C         140.4945  141.7455  169.5157 C.2     1  UNL1        0.1070
     13 C         139.9023  141.1003  168.2979 C.3     1  UNL1        0.1212
     14 N         142.0846  143.7504  164.3149 N.pl3   1  UNL1       -0.2628
     15 H         142.9631  144.0263  164.6634 H       1  UNL1        0.1570
     16 C         140.5684  145.4512  160.4344 C.ar    1  UNL1        0.0414
     17 C         140.0016  145.9332  161.7369 C.ar    1  UNL1        0.1034
     18 N         140.5070  145.3663  163.0303 N.ar    1  UNL1       -0.2120
     19 C         141.5793  144.3173  163.0215 C.ar    1  UNL1        0.2221
     20 N         142.1460  143.8353  161.7189 N.ar    1  UNL1       -0.2120
     21 C         141.6406  144.4023  160.4254 C.ar    1  UNL1        0.1034
@<TRIPOS>BOND
     1    16    17   ar
     2    17    18   ar
     3    18    19   ar
     4    19    14    1
     5    14     1    1
     6     1     2   ar
     7     2     3   ar
     8     3     4   ar
     9     4     5   ar
    10     4     6    1
    11     6     7    1
    12     7     8    1
    13     8     9    1
    14     9    10    2
    15    10    11    1
    16    11    12    2
    17    12    13    1
    18    19    20   ar
    19    20    21   ar
    20    21    16   ar
    21     5     1   ar
    22    13     9    1
    23    13     3    1
    24    14    15    1
@<TRIPOS>MOLECULE
*****
 21 24 0 0 0
SMALL
GASTEIGER

@<TRIPOS>ATOM
      1 C         142.2027  139.7720  165.5617 C.ar    1  UNL1        0.1650
      2 N         142.8476  140.6725  166.5732 N.ar    1  UNL1       -0.2279
      3 C         141.8926  140.8435  167.7172 C.ar    1  UNL1        0.0736
      4 C         140.6575  140.0486  167.4127 C.ar    1  UNL1        0.0241
      5 S         140.8491  139.3864  166.0805 S.2     1  UNL1       -0.0561
      6 C         139.4161  139.8955  168.2407 C.3     1  UNL1        0.0347
      7 C         139.1032  140.4994  169.5776 C.3     1  UNL1        0.0113
      8 C         139.9544  141.4056  170.4168 C.3     1  UNL1        0.0443
      9 C         141.3288  141.9317  170.1262 C.2     1  UNL1        0.0692
     10 N         142.0799  142.8387  171.0553 N.2     1  UNL1       -0.1562
     11 N         143.4066  143.1491  170.4281 N.2     1  UNL1       -0.1510
     12 C         143.4755  142.4339  169.1114 C.2     1  UNL1        0.1070
     13 C         142.1914  141.6815  168.9248 C.3     1  UNL1        0.1212
     14 N         142.8054  139.3340  164.2598 N.pl3   1  UNL1       -0.2628
     15 H         142.7521  138.3899  163.9856 H       1  UNL1        0.1570
     16 C         144.8574  142.3346  161.6074 C.ar    1  UNL1        0.0414
     17 C         143.4732  141.8622  161.2745 C.ar    1  UNL1        0.1034
     18 N         142.7892  140.8620  162.1587 N.ar    1  UNL1       -0.2120
     19 C         143.4894  140.3341  163.3757 C.ar    1  UNL1        0.2221
     20 N         144.8736  140.8066  163.7086 N.ar    1  UNL1       -0.2120
     21 C         145.5576  141.8068  162.8244 C.ar    1  UNL1        0.1034
@<TRIPOS>BOND
     1    16    17   ar
     2    17    18   ar
     3    18    19   ar
     4    19    14    1
     5    14     1    1
     6     1     2   ar
     7     2     3   ar
     8     3     4   ar
     9     4     5   ar
    10     4     6    1
    11     6     7    1
    12     7     8    1
    13     8     9    1
    14     9    10    2
    15    10    11    1
    16    11    12    2
    17    12    13    1
    18    19    20   ar
    19    20    21   ar
    20    21    16   ar
    21     5     1   ar
    22    13     9    1
    23    13     3    1
    24    14    15    1
@<TRIPOS>MOLECULE
*****
 21 24 0 0 0
SMALL
GASTEIGER

@<TRIPOS>ATOM
      1 C         139.3160  139.2286  166.7147 C.ar    1  UNL1        0.1650
      2 N         140.7307  139.2749  166.2181 N.ar    1  UNL1       -0.2279
      3 C         140.7265  138.8854  164.7696 C.ar    1  UNL1        0.0736
      4 C         139.3092  138.5983  164.3709 C.ar    1  UNL1        0.0241
      5 S         138.4375  138.8104  165.5731 S.2     1  UNL1       -0.0561
      6 C         138.7821  138.1721  163.0328 C.3     1  UNL1        0.0347
      7 C         139.5421  137.9276  161.7630 C.3     1  UNL1        0.0113
      8 C         141.0169  138.0490  161.5175 C.3     1  UNL1        0.0443
      9 C         142.0960  138.4449  162.4814 C.2     1  UNL1        0.0692
     10 N         143.5465  138.5291  162.1089 N.2     1  UNL1       -0.1562
     11 N         144.3137  138.9533  163.3260 N.2     1  UNL1       -0.1510
     12 C         143.3374  139.1313  164.4507 C.2     1  UNL1        0.1070
     13 C         141.9667  138.8171  163.9287 C.3     1  UNL1        0.1212
     14 N         138.8599  139.5448  168.1083 N.pl3   1  UNL1       -0.2628
     15 H         137.9967  139.2010  168.4336 H       1  UNL1        0.1570
     16 C         141.4370  142.0653  170.8019 C.ar    1  UNL1        0.0414
     17 C         141.0151  142.5901  169.4615 C.ar    1  UNL1        0.1034
     18 N         140.1561  141.7500  168.5637 N.ar    1  UNL1       -0.2120
     19 C         139.7189  140.3849  169.0061 C.ar    1  UNL1        0.2221
     20 N         140.1409  139.8602  170.3465 N.ar    1  UNL1       -0.2120
     21 C         140.9999  140.7003  171.2443 C.ar    1  UNL1        0.1034
@<TRIPOS>BOND
     1    16    17   ar
     2    17    18   ar
     3    18    19   ar
     4    19    14    1
     5    14     1    1
     6     1     2   ar
     7     2     3   ar
     8     3     4   ar
     9     4     5   ar
    10     4     6    1
    11     6     7    1
    12     7     8    1
    13     8     9    1
    14     9    10    2
    15    10    11    1
    16    11    12    2
    17    12    13    1
    18    19    20   ar
    19    20    21   ar
    20    21    16   ar
    21     5     1   ar
    22    13     9    1
    23    13     3    1
    24    14    15    1
