@<TRIPOS>MOLECULE
*****
 35 38 0 0 0
SMALL
GASTEIGER

@<TRIPOS>ATOM
      1 C         138.6533  138.4763  165.2960 C.ar    1  UNL1        0.0977
      2 N         138.4668  138.5748  163.8109 N.ar    1  UNL1       -0.1720
      3 N         139.2297  139.7720  163.3263 N.ar    1  UNL1       -0.2444
      4 C         139.8877  140.4134  164.5120 C.ar    1  UNL1        0.1284
      5 C         140.7652  141.6231  164.6405 C.ar    1  UNL1        0.1550
      6 N         141.2865  142.0321  165.9862 N.ar    1  UNL1       -0.1970
      7 C         140.9302  141.2313  167.2034 C.ar    1  UNL1        0.2215
      8 N         140.0527  140.0216  167.0750 N.ar    1  UNL1       -0.2108
      9 C         139.5315  139.6126  165.7293 C.ar    1  UNL1        0.1193
     10 N         141.4515  141.6403  168.5492 N.pl3   1  UNL1       -0.2754
     11 C         140.5497  141.5986  169.7472 C.3     1  UNL1        0.1107
     12 C         141.0709  142.0075  171.0929 C.3     1  UNL1        0.0904
     13 N         142.4940  142.4582  171.2408 N.3     1  UNL1       -0.2957
     14 C         143.3958  142.4999  170.0429 C.3     1  UNL1        0.0742
     15 C         144.8188  142.9506  170.1907 C.3     1  UNL1        0.0189
     16 C         142.8745  142.0909  168.6971 C.3     1  UNL1        0.1093
     17 H         142.9320  141.8332  171.9174 H       1  UNL1        0.1233
     18 C         137.1422  137.8212  167.3053 C.3     1  UNL1        0.0068
     19 C         138.0650  137.4260  166.1908 C.3     1  UNL1        0.0492
     20 N         141.1214  142.4239  163.4231 N.pl3   1  UNL1       -0.2820
     21 H         140.4596  143.0339  163.0242 H       1  UNL1        0.1551
     22 C         142.4859  142.2952  162.8136 C.ar    1  UNL1        0.1366
     23 C         143.3779  143.4967  162.7109 C.ar    1  UNL1        0.0551
     24 C         144.7424  143.3680  162.1014 C.ar    1  UNL1        0.1036
     25 N         145.2150  142.0377  161.5945 N.ar    1  UNL1       -0.2223
     26 C         144.3230  140.8360  161.6972 C.ar    1  UNL1        0.2001
     27 N         142.9585  140.9648  162.3067 N.ar    1  UNL1       -0.2089
     28 C         139.3190  140.2448  161.9056 C.3     1  UNL1        0.1595
     29 C         138.3748  141.2973  161.4048 C.3     1  UNL1        0.1688
     30 O         138.5710  142.7307  161.8007 O.3     1  UNL1       -0.3435
     31 C         137.6552  143.3631  162.8063 C.3     1  UNL1        0.2459
     32 C         138.2079  144.3001  163.8391 C.3     1  UNL1        0.4248
     33 F         138.7607  145.2371  164.8718 F       1  UNL1       -0.1674
     34 F         138.9978  145.0052  162.7766 F       1  UNL1       -0.1674
     35 F         137.4180  143.5950  164.9015 F       1  UNL1       -0.1674
@<TRIPOS>BOND
     1    18    19    1
     2    19     1    1
     3     1     2   ar
     4     2     3   ar
     5     3    28    1
     6    28    29    1
     7    29    30    1
     8    30    31    1
     9    31    32    1
    10    32    33    1
    11    32    34    1
    12    32    35    1
    13     3     4   ar
    14     4     5   ar
    15     5    20    1
    16    20    22    1
    17    22    23   ar
    18    23    24   ar
    19    24    25   ar
    20    25    26   ar
    21    26    27   ar
    22     5     6   ar
    23     6     7   ar
    24     7    10    1
    25    10    11    1
    26    11    12    1
    27    12    13    1
    28    13    14    1
    29    14    15    1
    30    14    16    1
    31     7     8   ar
    32     8     9   ar
    33     9     1   ar
    34     9     4   ar
    35    27    22   ar
    36    16    10    1
    37    20    21    1
    38    13    17    1
@<TRIPOS>MOLECULE
*****
 35 38 0 0 0
SMALL
GASTEIGER

@<TRIPOS>ATOM
      1 C         138.9517  138.3346  165.0738 C.ar    1  UNL1        0.0977
      2 N         138.8638  138.3771  163.5769 N.ar    1  UNL1       -0.1720
      3 N         139.6664  139.5505  163.0986 N.ar    1  UNL1       -0.2444
      4 C         140.2502  140.2334  164.2998 C.ar    1  UNL1        0.1284
      5 C         141.1270  141.4424  164.4398 C.ar    1  UNL1        0.1550
      6 N         141.5621  141.8999  165.8004 N.ar    1  UNL1       -0.1970
      7 C         141.1204  141.1484  167.0211 C.ar    1  UNL1        0.2215
      8 N         140.2436  139.9394  166.8811 N.ar    1  UNL1       -0.2108
      9 C         139.8085  139.4819  165.5205 C.ar    1  UNL1        0.1193
     10 N         141.5556  141.6059  168.3818 N.pl3   1  UNL1       -0.2754
     11 C         140.5741  141.6248  169.5160 C.3     1  UNL1        0.1107
     12 C         141.0092  142.0823  170.8767 C.3     1  UNL1        0.0904
     13 N         142.4257  142.5209  171.1031 N.3     1  UNL1       -0.2957
     14 C         143.4071  142.5020  169.9689 C.3     1  UNL1        0.0742
     15 C         144.8235  142.9406  170.1953 C.3     1  UNL1        0.0189
     16 C         142.9720  142.0445  168.6082 C.3     1  UNL1        0.1093
     17 H         142.8073  141.9188  171.8327 H       1  UNL1        0.1233
     18 C         137.3843  137.7734  167.0684 C.3     1  UNL1        0.0068
     19 C         138.2976  137.3226  165.9671 C.3     1  UNL1        0.0492
     20 N         141.5687  142.1938  163.2190 N.pl3   1  UNL1       -0.2820
     21 H         142.3788  141.9136  162.7347 H       1  UNL1        0.1551
     22 C         140.7762  143.3723  162.7361 C.ar    1  UNL1        0.1366
     23 C         139.4478  143.6880  163.3570 C.ar    1  UNL1        0.0551
     24 C         138.6553  144.8664  162.8742 C.ar    1  UNL1        0.1036
     25 N         139.1911  145.7292  161.7703 N.ar    1  UNL1       -0.2223
     26 C         140.5196  145.4135  161.1493 C.ar    1  UNL1        0.2001
     27 N         141.3121  144.2350  161.6322 N.ar    1  UNL1       -0.2089
     28 C         139.8524  139.9679  161.6699 C.3     1  UNL1        0.1595
     29 C         141.0838  139.5518  160.9213 C.3     1  UNL1        0.1688
     30 O         142.4410  139.8302  161.4961 O.3     1  UNL1       -0.3435
     31 C         143.1009  138.8185  162.3854 C.3     1  UNL1        0.2459
     32 C         144.1591  139.2507  163.3567 C.3     1  UNL1        0.4248
     33 F         145.2173  139.6828  164.3279 F       1  UNL1       -0.1674
     34 F         144.8315  140.0401  162.2729 F       1  UNL1       -0.1674
     35 F         143.4866  138.4613  164.4405 F       1  UNL1       -0.1674
@<TRIPOS>BOND
     1    18    19    1
     2    19     1    1
     3     1     2   ar
     4     2     3   ar
     5     3    28    1
     6    28    29    1
     7    29    30    1
     8    30    31    1
     9    31    32    1
    10    32    33    1
    11    32    34    1
    12    32    35    1
    13     3     4   ar
    14     4     5   ar
    15     5    20    1
    16    20    22    1
    17    22    23   ar
    18    23    24   ar
    19    24    25   ar
    20    25    26   ar
    21    26    27   ar
    22     5     6   ar
    23     6     7   ar
    24     7    10    1
    25    10    11    1
    26    11    12    1
    27    12    13    1
    28    13    14    1
    29    14    15    1
    30    14    16    1
    31     7     8   ar
    32     8     9   ar
    33     9     1   ar
    34     9     4   ar
    35    27    22   ar
    36    16    10    1
    37    20    21    1
    38    13    17    1
@<TRIPOS>MOLECULE
*****
 35 38 0 0 0
SMALL
GASTEIGER

@<TRIPOS>ATOM
      1 C         143.5757  142.8981  162.8494 C.ar    1  UNL1        0.0977
      2 N         143.5705  143.5360  161.4918 N.ar    1  UNL1       -0.1720
      3 N         142.1917  143.3942  160.9183 N.ar    1  UNL1       -0.2444
      4 C         141.3449  142.6686  161.9215 C.ar    1  UNL1        0.1284
      5 C         139.9053  142.2474  161.9024 C.ar    1  UNL1        0.1550
      6 N         139.3212  141.5196  163.0767 N.ar    1  UNL1       -0.1970
      7 C         140.1765  141.2130  164.2701 C.ar    1  UNL1        0.2215
      8 N         141.6161  141.6341  164.2893 N.ar    1  UNL1       -0.2108
      9 C         142.2002  142.3619  163.1150 C.ar    1  UNL1        0.1193
     10 N         139.5924  140.4852  165.4445 N.pl3   1  UNL1       -0.2754
     11 C         138.5110  139.4672  165.2337 C.3     1  UNL1        0.1107
     12 C         137.9269  138.7394  166.4080 C.3     1  UNL1        0.0904
     13 N         138.4240  139.0296  167.7932 N.3     1  UNL1       -0.2957
     14 C         139.5054  140.0475  168.0040 C.3     1  UNL1        0.0742
     15 C         140.0026  140.3377  169.3891 C.3     1  UNL1        0.0189
     16 C         140.0896  140.7753  166.8296 C.3     1  UNL1        0.1093
     17 H         138.7712  138.1484  168.1720 H       1  UNL1        0.1233
     18 C         145.5338  141.5363  163.8798 C.3     1  UNL1        0.0068
     19 C         144.7503  142.8114  163.7783 C.3     1  UNL1        0.0492
     20 N         139.0499  142.5541  160.7089 N.pl3   1  UNL1       -0.2820
     21 H         138.5726  143.4133  160.6531 H       1  UNL1        0.1551
     22 C         138.9219  141.5516  159.6005 C.ar    1  UNL1        0.1366
     23 C         138.2404  141.9325  158.3197 C.ar    1  UNL1        0.0551
     24 C         138.1124  140.9301  157.2113 C.ar    1  UNL1        0.1036
     25 N         138.6659  139.5467  157.3836 N.ar    1  UNL1       -0.2223
     26 C         139.3475  139.1657  158.6644 C.ar    1  UNL1        0.2001
     27 N         139.4755  140.1681  159.7728 N.ar    1  UNL1       -0.2089
     28 C         141.7393  143.8908  159.5772 C.3     1  UNL1        0.1595
     29 C         141.0230  145.2041  159.4664 C.3     1  UNL1        0.1688
     30 O         139.7633  145.4396  160.2458 O.3     1  UNL1       -0.3435
     31 C         139.8072  146.2249  161.5230 C.3     1  UNL1        0.2459
     32 C         139.7937  145.5120  162.8426 C.3     1  UNL1        0.4248
     33 F         139.7802  144.7990  164.1622 F       1  UNL1       -0.1674
     34 F         138.3326  145.2199  162.6699 F       1  UNL1       -0.1674
     35 F         141.2548  145.8040  163.0153 F       1  UNL1       -0.1674
@<TRIPOS>BOND
     1    18    19    1
     2    19     1    1
     3     1     2   ar
     4     2     3   ar
     5     3    28    1
     6    28    29    1
     7    29    30    1
     8    30    31    1
     9    31    32    1
    10    32    33    1
    11    32    34    1
    12    32    35    1
    13     3     4   ar
    14     4     5   ar
    15     5    20    1
    16    20    22    1
    17    22    23   ar
    18    23    24   ar
    19    24    25   ar
    20    25    26   ar
    21    26    27   ar
    22     5     6   ar
    23     6     7   ar
    24     7    10    1
    25    10    11    1
    26    11    12    1
    27    12    13    1
    28    13    14    1
    29    14    15    1
    30    14    16    1
    31     7     8   ar
    32     8     9   ar
    33     9     1   ar
    34     9     4   ar
    35    27    22   ar
    36    16    10    1
    37    20    21    1
    38    13    17    1
@<TRIPOS>MOLECULE
*****
 35 38 0 0 0
SMALL
GASTEIGER

@<TRIPOS>ATOM
      1 C         138.6306  138.1662  165.3136 C.ar    1  UNL1        0.0977
      2 N         138.4903  137.9472  163.8364 N.ar    1  UNL1       -0.1720
      3 N         139.1902  139.0717  163.1325 N.ar    1  UNL1       -0.2444
      4 C         139.7631  139.9858  164.1748 C.ar    1  UNL1        0.1284
      5 C         140.5550  141.2555  164.0706 C.ar    1  UNL1        0.1550
      6 N         141.0010  141.9654  165.3143 N.ar    1  UNL1       -0.1970
      7 C         140.6552  141.4058  166.6623 C.ar    1  UNL1        0.2215
      8 N         139.8633  140.1361  166.7665 N.ar    1  UNL1       -0.2108
      9 C         139.4172  139.4261  165.5228 C.ar    1  UNL1        0.1193
     10 N         141.1012  142.1158  167.9061 N.pl3   1  UNL1       -0.2754
     11 C         140.1397  142.9881  168.6575 C.3     1  UNL1        0.1107
     12 C         140.5857  143.6980  169.9012 C.3     1  UNL1        0.0904
     13 N         141.9933  143.5357  170.3937 N.3     1  UNL1       -0.2957
     14 C         142.9548  142.6634  169.6423 C.3     1  UNL1        0.0742
     15 C         144.3623  142.5011  170.1347 C.3     1  UNL1        0.0189
     16 C         142.5087  141.9534  168.3985 C.3     1  UNL1        0.1093
     17 H         141.9326  143.1601  171.3401 H       1  UNL1        0.1233
     18 C         137.1170  137.8352  167.3992 C.3     1  UNL1        0.0068
     19 C         138.0808  137.2808  166.3924 C.3     1  UNL1        0.0492
     20 N         140.9008  141.8151  162.7225 N.pl3   1  UNL1       -0.2820
     21 H         140.3102  141.6464  161.9531 H       1  UNL1        0.1551
     22 C         142.1466  142.6319  162.5467 C.ar    1  UNL1        0.1366
     23 C         143.3389  142.0416  161.8538 C.ar    1  UNL1        0.0551
     24 C         144.5847  142.8584  161.6780 C.ar    1  UNL1        0.1036
     25 N         144.6382  144.2654  162.1950 N.ar    1  UNL1       -0.2223
     26 C         143.4459  144.8557  162.8879 C.ar    1  UNL1        0.2001
     27 N         142.2001  144.0390  163.0638 N.ar    1  UNL1       -0.2089
     28 C         139.2983  139.2508  161.6472 C.3     1  UNL1        0.1595
     29 C         140.4491  138.6443  160.9004 C.3     1  UNL1        0.1688
     30 O         141.2936  137.5896  161.5518 O.3     1  UNL1       -0.3435
     31 C         142.5446  137.9764  162.2834 C.3     1  UNL1        0.2459
     32 C         142.5406  138.0660  163.7807 C.3     1  UNL1        0.4248
     33 F         142.5366  138.1556  165.2780 F       1  UNL1       -0.1674
     34 F         143.5103  139.2085  163.7150 F       1  UNL1       -0.1674
     35 F         141.5708  136.9235  163.8464 F       1  UNL1       -0.1674
@<TRIPOS>BOND
     1    18    19    1
     2    19     1    1
     3     1     2   ar
     4     2     3   ar
     5     3    28    1
     6    28    29    1
     7    29    30    1
     8    30    31    1
     9    31    32    1
    10    32    33    1
    11    32    34    1
    12    32    35    1
    13     3     4   ar
    14     4     5   ar
    15     5    20    1
    16    20    22    1
    17    22    23   ar
    18    23    24   ar
    19    24    25   ar
    20    25    26   ar
    21    26    27   ar
    22     5     6   ar
    23     6     7   ar
    24     7    10    1
    25    10    11    1
    26    11    12    1
    27    12    13    1
    28    13    14    1
    29    14    15    1
    30    14    16    1
    31     7     8   ar
    32     8     9   ar
    33     9     1   ar
    34     9     4   ar
    35    27    22   ar
    36    16    10    1
    37    20    21    1
    38    13    17    1
@<TRIPOS>MOLECULE
*****
 35 38 0 0 0
SMALL
GASTEIGER

@<TRIPOS>ATOM
      1 C         143.6497  142.4763  163.3842 C.ar    1  UNL1        0.0977
      2 N         142.8491  142.6491  162.1276 N.ar    1  UNL1       -0.1720
      3 N         141.4217  142.3070  162.4366 N.ar    1  UNL1       -0.2444
      4 C         141.3402  141.9228  163.8844 C.ar    1  UNL1        0.1284
      5 C         140.1899  141.4913  164.7450 C.ar    1  UNL1        0.1550
      6 N         140.4167  141.1644  166.1913 N.ar    1  UNL1       -0.1970
      7 C         141.7936  141.2691  166.7769 C.ar    1  UNL1        0.2215
      8 N         142.9439  141.7006  165.9162 N.ar    1  UNL1       -0.2108
      9 C         142.7171  142.0275  164.4700 C.ar    1  UNL1        0.1193
     10 N         142.0204  140.9421  168.2232 N.pl3   1  UNL1       -0.2754
     11 C         141.8312  141.9999  169.2698 C.3     1  UNL1        0.1107
     12 C         142.0580  141.6731  170.7161 C.3     1  UNL1        0.0904
     13 N         142.4740  140.2884  171.1158 N.3     1  UNL1       -0.2957
     14 C         142.6632  139.2306  170.0692 C.3     1  UNL1        0.0742
     15 C         143.0792  137.8460  170.4689 C.3     1  UNL1        0.0189
     16 C         142.4364  139.5575  168.6229 C.3     1  UNL1        0.1093
     17 H         141.7630  139.9417  171.7597 H       1  UNL1        0.1233
     18 C         146.0434  141.5587  163.8060 C.3     1  UNL1        0.0068
     19 C         145.1240  142.7112  163.5296 C.3     1  UNL1        0.0492
     20 N         138.8129  141.3866  164.1594 N.pl3   1  UNL1       -0.2820
     21 H         138.1462  142.0878  164.3409 H       1  UNL1        0.1551
     22 C         138.4518  140.2135  163.2971 C.ar    1  UNL1        0.1366
     23 C         138.9255  138.8386  163.6647 C.ar    1  UNL1        0.0551
     24 C         138.5644  137.6655  162.8024 C.ar    1  UNL1        0.1036
     25 N         137.7297  137.8673  161.5726 N.ar    1  UNL1       -0.2223
     26 C         137.2560  139.2423  161.2050 C.ar    1  UNL1        0.2001
     27 N         137.6170  140.4154  162.0673 N.ar    1  UNL1       -0.2089
     28 C         140.2768  142.3427  161.4681 C.3     1  UNL1        0.1595
     29 C         139.4691  143.5965  161.3076 C.3     1  UNL1        0.1688
     30 O         138.3314  143.8806  162.2429 O.3     1  UNL1       -0.3435
     31 C         138.4319  145.0099  163.2250 C.3     1  UNL1        0.2459
     32 C         138.8086  144.7329  164.6503 C.3     1  UNL1        0.4248
     33 F         139.1851  144.4560  166.0756 F       1  UNL1       -0.1674
     34 F         137.3741  144.4340  164.9713 F       1  UNL1       -0.1674
     35 F         140.2430  145.0318  164.3293 F       1  UNL1       -0.1674
@<TRIPOS>BOND
     1    18    19    1
     2    19     1    1
     3     1     2   ar
     4     2     3   ar
     5     3    28    1
     6    28    29    1
     7    29    30    1
     8    30    31    1
     9    31    32    1
    10    32    33    1
    11    32    34    1
    12    32    35    1
    13     3     4   ar
    14     4     5   ar
    15     5    20    1
    16    20    22    1
    17    22    23   ar
    18    23    24   ar
    19    24    25   ar
    20    25    26   ar
    21    26    27   ar
    22     5     6   ar
    23     6     7   ar
    24     7    10    1
    25    10    11    1
    26    11    12    1
    27    12    13    1
    28    13    14    1
    29    14    15    1
    30    14    16    1
    31     7     8   ar
    32     8     9   ar
    33     9     1   ar
    34     9     4   ar
    35    27    22   ar
    36    16    10    1
    37    20    21    1
    38    13    17    1
@<TRIPOS>MOLECULE
*****
 35 38 0 0 0
SMALL
GASTEIGER

@<TRIPOS>ATOM
      1 C         141.5771  141.9617  169.4796 C.ar    1  UNL1        0.0977
      2 N         140.4722  141.1333  170.0653 N.ar    1  UNL1       -0.1720
      3 N         139.6643  140.5712  168.9334 N.ar    1  UNL1       -0.2444
      4 C         140.2700  141.0522  167.6481 C.ar    1  UNL1        0.1284
      5 C         139.8977  140.8186  166.2139 C.ar    1  UNL1        0.1550
      6 N         140.7076  141.4444  165.1173 N.ar    1  UNL1       -0.1970
      7 C         141.8897  142.3037  165.4550 C.ar    1  UNL1        0.2215
      8 N         142.2620  142.5373  166.8892 N.ar    1  UNL1       -0.2108
      9 C         141.4521  141.9115  167.9857 C.ar    1  UNL1        0.1193
     10 N         142.6997  142.9296  164.3584 N.pl3   1  UNL1       -0.2754
     11 C         142.9900  144.4009  164.3867 C.3     1  UNL1        0.1107
     12 C         143.7999  145.0268  163.2902 C.3     1  UNL1        0.0904
     13 N         144.3195  144.1813  162.1653 N.3     1  UNL1       -0.2957
     14 C         144.0291  142.7099  162.1370 C.3     1  UNL1        0.0742
     15 C         144.5486  141.8644  161.0123 C.3     1  UNL1        0.0189
     16 C         143.2192  142.0841  163.2336 C.3     1  UNL1        0.1093
     17 H         145.3346  144.2811  162.1665 H       1  UNL1        0.1233
     18 C         144.0772  142.4674  169.9732 C.3     1  UNL1        0.0068
     19 C         142.6233  142.7090  170.2522 C.3     1  UNL1        0.0492
     20 N         138.7155  139.9592  165.8763 N.pl3   1  UNL1       -0.2820
     21 H         138.1000  139.6675  166.5871 H       1  UNL1        0.1551
     22 C         138.4713  139.5442  164.4557 C.ar    1  UNL1        0.1366
     23 C         138.8728  138.1745  163.9948 C.ar    1  UNL1        0.0551
     24 C         138.6285  137.7595  162.5742 C.ar    1  UNL1        0.1036
     25 N         137.9827  138.7143  161.6144 N.ar    1  UNL1       -0.2223
     26 C         137.5811  140.0842  162.0753 C.ar    1  UNL1        0.2001
     27 N         137.8254  140.4991  163.4959 N.ar    1  UNL1       -0.2089
     28 C         138.4620  139.6839  169.0638 C.3     1  UNL1        0.1595
     29 C         137.6977  139.6413  170.3537 C.3     1  UNL1        0.1688
     30 O         136.7288  138.5264  170.6150 O.3     1  UNL1       -0.3435
     31 C         135.8687  138.5527  171.8436 C.3     1  UNL1        0.2459
     32 C         135.7561  137.3309  172.7065 C.3     1  UNL1        0.4248
     33 F         135.6434  136.1091  173.5693 F       1  UNL1       -0.1674
     34 F         134.3313  137.6818  173.0174 F       1  UNL1       -0.1674
     35 F         137.1809  136.9799  172.3955 F       1  UNL1       -0.1674
@<TRIPOS>BOND
     1    18    19    1
     2    19     1    1
     3     1     2   ar
     4     2     3   ar
     5     3    28    1
     6    28    29    1
     7    29    30    1
     8    30    31    1
     9    31    32    1
    10    32    33    1
    11    32    34    1
    12    32    35    1
    13     3     4   ar
    14     4     5   ar
    15     5    20    1
    16    20    22    1
    17    22    23   ar
    18    23    24   ar
    19    24    25   ar
    20    25    26   ar
    21    26    27   ar
    22     5     6   ar
    23     6     7   ar
    24     7    10    1
    25    10    11    1
    26    11    12    1
    27    12    13    1
    28    13    14    1
    29    14    15    1
    30    14    16    1
    31     7     8   ar
    32     8     9   ar
    33     9     1   ar
    34     9     4   ar
    35    27    22   ar
    36    16    10    1
    37    20    21    1
    38    13    17    1
@<TRIPOS>MOLECULE
*****
 35 38 0 0 0
SMALL
GASTEIGER

@<TRIPOS>ATOM
      1 C         140.7056  142.0328  169.5817 C.ar    1  UNL1        0.0977
      2 N         141.5140  140.8917  170.1244 N.ar    1  UNL1       -0.1720
      3 N         142.0240  140.0912  168.9629 N.ar    1  UNL1       -0.2444
      4 C         141.5308  140.7377  167.7023 C.ar    1  UNL1        0.1284
      5 C         141.7185  140.3886  166.2556 C.ar    1  UNL1        0.1550
      6 N         141.0913  141.2395  165.1914 N.ar    1  UNL1       -0.1970
      7 C         140.2766  142.4394  165.5739 C.ar    1  UNL1        0.2215
      8 N         140.0889  142.7885  167.0206 N.ar    1  UNL1       -0.2108
      9 C         140.7161  141.9376  168.0848 C.ar    1  UNL1        0.1193
     10 N         139.6494  143.2904  164.5096 N.pl3   1  UNL1       -0.2754
     11 C         138.1634  143.4938  164.4909 C.3     1  UNL1        0.1107
     12 C         137.5362  144.3447  163.4267 C.3     1  UNL1        0.0904
     13 N         138.3950  144.9923  162.3811 N.3     1  UNL1       -0.2957
     14 C         139.8811  144.7889  162.3998 C.3     1  UNL1        0.0742
     15 C         140.7399  145.4364  161.3544 C.3     1  UNL1        0.0189
     16 C         140.5082  143.9379  163.4641 C.3     1  UNL1        0.1093
     17 H         138.2345  145.9973  162.4493 H       1  UNL1        0.1233
     18 C         140.2921  144.5358  170.1418 C.3     1  UNL1        0.0068
     19 C         140.0091  143.0844  170.3934 C.3     1  UNL1        0.0492
     20 N         142.5333  139.1887  165.8732 N.pl3   1  UNL1       -0.2820
     21 H         143.1680  138.7991  166.5171 H       1  UNL1        0.1551
     22 C         142.3810  138.5823  164.5097 C.ar    1  UNL1        0.1366
     23 C         141.1359  137.8216  164.1620 C.ar    1  UNL1        0.0551
     24 C         140.9836  137.2152  162.7985 C.ar    1  UNL1        0.1036
     25 N         142.0764  137.3696  161.7827 N.ar    1  UNL1       -0.2223
     26 C         143.3216  138.1304  162.1304 C.ar    1  UNL1        0.2001
     27 N         143.4739  138.7367  163.4939 N.ar    1  UNL1       -0.2089
     28 C         142.8773  138.8605  169.0471 C.3     1  UNL1        0.1595
     29 C         142.9420  138.0788  170.3257 C.3     1  UNL1        0.1688
     30 O         143.8970  136.9293  170.4545 O.3     1  UNL1       -0.3435
     31 C         144.7432  136.7915  171.6854 C.3     1  UNL1        0.2459
     32 C         145.0647  135.4297  172.2258 C.3     1  UNL1        0.4248
     33 F         145.3861  134.0678  172.7662 F       1  UNL1       -0.1674
     34 F         144.5645  134.8076  170.9558 F       1  UNL1       -0.1674
     35 F         145.5648  136.0517  173.4958 F       1  UNL1       -0.1674
@<TRIPOS>BOND
     1    18    19    1
     2    19     1    1
     3     1     2   ar
     4     2     3   ar
     5     3    28    1
     6    28    29    1
     7    29    30    1
     8    30    31    1
     9    31    32    1
    10    32    33    1
    11    32    34    1
    12    32    35    1
    13     3     4   ar
    14     4     5   ar
    15     5    20    1
    16    20    22    1
    17    22    23   ar
    18    23    24   ar
    19    24    25   ar
    20    25    26   ar
    21    26    27   ar
    22     5     6   ar
    23     6     7   ar
    24     7    10    1
    25    10    11    1
    26    11    12    1
    27    12    13    1
    28    13    14    1
    29    14    15    1
    30    14    16    1
    31     7     8   ar
    32     8     9   ar
    33     9     1   ar
    34     9     4   ar
    35    27    22   ar
    36    16    10    1
    37    20    21    1
    38    13    17    1
@<TRIPOS>MOLECULE
*****
 35 38 0 0 0
SMALL
GASTEIGER

@<TRIPOS>ATOM
      1 C         140.6528  138.8027  163.8958 C.ar    1  UNL1        0.0977
      2 N         140.7964  138.9896  162.4144 N.ar    1  UNL1       -0.1720
      3 N         141.3923  140.3450  162.1738 N.ar    1  UNL1       -0.2444
      4 C         141.6170  140.9957  163.5066 C.ar    1  UNL1        0.1284
      5 C         142.1787  142.3331  163.8886 C.ar    1  UNL1        0.1550
      6 N         142.2833  142.7173  165.3347 N.ar    1  UNL1       -0.1970
      7 C         141.8263  141.7641  166.3989 C.ar    1  UNL1        0.2215
      8 N         141.2646  140.4267  166.0169 N.ar    1  UNL1       -0.2108
      9 C         141.1599  140.0425  164.5708 C.ar    1  UNL1        0.1193
     10 N         141.9310  142.1482  167.8451 N.pl3   1  UNL1       -0.2754
     11 C         143.2779  142.2614  168.4955 C.3     1  UNL1        0.1107
     12 C         143.3826  142.6455  169.9416 C.3     1  UNL1        0.0904
     13 N         142.1403  142.9165  170.7375 N.3     1  UNL1       -0.2957
     14 C         140.7934  142.8034  170.0872 C.3     1  UNL1        0.0742
     15 C         139.5512  143.0744  170.8830 C.3     1  UNL1        0.0189
     16 C         140.6887  142.4192  168.6409 C.3     1  UNL1        0.1093
     17 H         142.2183  143.8708  171.0892 H       1  UNL1        0.1233
     18 C         138.7794  137.6645  165.2903 C.3     1  UNL1        0.0068
     19 C         140.0993  137.5890  164.5817 C.3     1  UNL1        0.0492
     20 N         142.6357  143.2863  162.8243 N.pl3   1  UNL1       -0.2820
     21 H         143.5867  143.3238  162.5725 H       1  UNL1        0.1551
     22 C         141.6437  144.1823  162.1437 C.ar    1  UNL1        0.1366
     23 C         140.4378  144.6701  162.8906 C.ar    1  UNL1        0.0551
     24 C         139.4459  145.5661  162.2100 C.ar    1  UNL1        0.1036
     25 N         139.6597  145.9742  160.7826 N.ar    1  UNL1       -0.2223
     26 C         140.8657  145.4864  160.0356 C.ar    1  UNL1        0.2001
     27 N         141.8577  144.5904  160.7162 N.ar    1  UNL1       -0.2089
     28 C         141.7081  140.9444  160.8356 C.3     1  UNL1        0.1595
     29 C         140.5965  141.3260  159.9036 C.3     1  UNL1        0.1688
     30 O         139.3743  142.0137  160.4358 O.3     1  UNL1       -0.3435
     31 C         138.1384  141.2193  160.7383 C.3     1  UNL1        0.2459
     32 C         137.7560  140.9402  162.1616 C.3     1  UNL1        0.4248
     33 F         137.3735  140.6613  163.5849 F       1  UNL1       -0.1674
     34 F         137.7774  142.4109  162.4557 F       1  UNL1       -0.1674
     35 F         137.7346  139.4695  161.8675 F       1  UNL1       -0.1674
@<TRIPOS>BOND
     1    18    19    1
     2    19     1    1
     3     1     2   ar
     4     2     3   ar
     5     3    28    1
     6    28    29    1
     7    29    30    1
     8    30    31    1
     9    31    32    1
    10    32    33    1
    11    32    34    1
    12    32    35    1
    13     3     4   ar
    14     4     5   ar
    15     5    20    1
    16    20    22    1
    17    22    23   ar
    18    23    24   ar
    19    24    25   ar
    20    25    26   ar
    21    26    27   ar
    22     5     6   ar
    23     6     7   ar
    24     7    10    1
    25    10    11    1
    26    11    12    1
    27    12    13    1
    28    13    14    1
    29    14    15    1
    30    14    16    1
    31     7     8   ar
    32     8     9   ar
    33     9     1   ar
    34     9     4   ar
    35    27    22   ar
    36    16    10    1
    37    20    21    1
    38    13    17    1
@<TRIPOS>MOLECULE
*****
 35 38 0 0 0
SMALL
GASTEIGER

@<TRIPOS>ATOM
      1 C         137.8298  142.7283  162.5997 C.ar    1  UNL1        0.0977
      2 N         137.4544  141.3335  163.0044 N.ar    1  UNL1       -0.1720
      3 N         137.8528  140.4059  161.8950 N.ar    1  UNL1       -0.2444
      4 C         138.4745  141.2274  160.8047 C.ar    1  UNL1        0.1284
      5 C         139.0517  140.8538  159.4715 C.ar    1  UNL1        0.1550
      6 N         139.6147  141.9155  158.5739 N.ar    1  UNL1       -0.1970
      7 C         139.6005  143.3508  159.0095 C.ar    1  UNL1        0.2215
      8 N         139.0233  143.7244  160.3426 N.ar    1  UNL1       -0.2108
      9 C         138.4603  142.6626  161.2402 C.ar    1  UNL1        0.1193
     10 N         140.1635  144.4126  158.1118 N.pl3   1  UNL1       -0.2754
     11 C         141.5573  144.9206  158.3337 C.3     1  UNL1        0.1107
     12 C         142.1203  145.9824  157.4361 C.3     1  UNL1        0.0904
     13 N         141.2895  146.5362  156.3166 N.3     1  UNL1       -0.2957
     14 C         139.8957  146.0282  156.0948 C.3     1  UNL1        0.0742
     15 C         139.0649  146.5820  154.9754 C.3     1  UNL1        0.0189
     16 C         139.3327  144.9664  156.9924 C.3     1  UNL1        0.1093
     17 H         141.8061  146.3650  155.4540 H       1  UNL1        0.1233
     18 C         138.7654  144.6079  164.1300 C.3     1  UNL1        0.0068
     19 C         137.6129  143.9705  163.4119 C.3     1  UNL1        0.0492
     20 N         139.0659  139.4185  159.0360 N.pl3   1  UNL1       -0.2820
     21 H         138.2210  138.9190  158.9590 H       1  UNL1        0.1551
     22 C         140.3674  138.7441  158.7178 C.ar    1  UNL1        0.1366
     23 C         141.5058  138.8132  159.6921 C.ar    1  UNL1        0.0551
     24 C         142.8073  138.1388  159.3739 C.ar    1  UNL1        0.1036
     25 N         142.9705  137.3954  158.0814 N.ar    1  UNL1       -0.2223
     26 C         141.8321  137.3263  157.1070 C.ar    1  UNL1        0.2001
     27 N         140.5306  138.0007  157.4252 N.ar    1  UNL1       -0.2089
     28 C         137.6629  138.9180  161.8787 C.3     1  UNL1        0.1595
     29 C         138.7684  138.0158  162.3412 C.3     1  UNL1        0.1688
     30 O         138.6058  137.2142  163.5986 O.3     1  UNL1       -0.3435
     31 C         139.1785  137.7194  164.8895 C.3     1  UNL1        0.2459
     32 C         138.2697  138.2660  165.9502 C.3     1  UNL1        0.4248
     33 F         137.3608  138.8126  167.0109 F       1  UNL1       -0.1674
     34 F         137.8989  136.8693  166.3524 F       1  UNL1       -0.1674
     35 F         138.6404  139.6627  165.5481 F       1  UNL1       -0.1674
@<TRIPOS>BOND
     1    18    19    1
     2    19     1    1
     3     1     2   ar
     4     2     3   ar
     5     3    28    1
     6    28    29    1
     7    29    30    1
     8    30    31    1
     9    31    32    1
    10    32    33    1
    11    32    34    1
    12    32    35    1
    13     3     4   ar
    14     4     5   ar
    15     5    20    1
    16    20    22    1
    17    22    23   ar
    18    23    24   ar
    19    24    25   ar
    20    25    26   ar
    21    26    27   ar
    22     5     6   ar
    23     6     7   ar
    24     7    10    1
    25    10    11    1
    26    11    12    1
    27    12    13    1
    28    13    14    1
    29    14    15    1
    30    14    16    1
    31     7     8   ar
    32     8     9   ar
    33     9     1   ar
    34     9     4   ar
    35    27    22   ar
    36    16    10    1
    37    20    21    1
    38    13    17    1
