@<TRIPOS>MOLECULE
*****
 37 40 0 0 0
SMALL
GASTEIGER

@<TRIPOS>ATOM
      1 N         142.1627  137.7149  158.7647 N.am    1  UNL1       -0.2985
      2 C         142.9635  138.5976  159.6757 C.2     1  UNL1        0.2654
      3 O         144.0934  139.4158  159.1246 O.2     1  UNL1       -0.2684
      4 H         141.4211  137.1779  159.1264 H       1  UNL1        0.1498
      5 C         142.6343  138.6619  161.1376 C.ar    1  UNL1        0.1555
      6 C         143.6225  138.6361  162.2659 C.ar    1  UNL1        0.0402
      7 C         142.8581  138.7216  163.5537 C.ar    1  UNL1        0.0622
      8 N         141.3974  138.8003  163.2214 N.ar    1  UNL1       -0.2336
      9 N         141.2592  138.7634  161.7282 N.ar    1  UNL1       -0.1608
     10 C         140.2726  138.8985  164.2087 C.ar    1  UNL1        0.0824
     11 C         139.7320  140.2423  164.5986 C.ar    1  UNL1        0.0191
     12 C         138.6071  140.3406  165.5860 C.ar    1  UNL1        0.0015
     13 C         138.0229  139.0950  166.1836 C.ar    1  UNL1        0.0001
     14 C         138.5635  137.7512  165.7938 C.ar    1  UNL1        0.0015
     15 C         139.6883  137.6530  164.8064 C.ar    1  UNL1        0.0191
     16 C         143.4502  138.7274  164.9318 C.3     1  UNL1        0.0459
     17 C         143.0901  139.8167  165.8982 C.3     1  UNL1        0.0059
     18 C         142.5099  139.4696  167.2372 C.3     1  UNL1        0.0004
     19 C         143.3102  141.2529  165.5255 C.3     1  UNL1        0.0004
     20 C         142.4919  137.6507  157.3027 C.3     1  UNL1        0.1038
     21 N         142.7277  134.0563  155.0290 N.3     1  UNL1       -0.2688
     22 C         141.3027  134.5205  154.9651 C.3     1  UNL1        0.0735
     23 C         140.8904  135.7760  155.6748 C.3     1  UNL1        0.0332
     24 C         141.9031  136.5674  156.4483 C.3     1  UNL1        0.1000
     25 C         143.3280  136.1032  156.5122 C.3     1  UNL1        0.0332
     26 C         143.7403  134.8477  155.8025 C.3     1  UNL1        0.0735
     27 C         140.6826  137.4078  156.6812 C.1     1  UNL1        0.0729
     28 N         139.4622  138.2482  156.9141 N.1     1  UNL1       -0.1959
     29 C         143.1400  132.8008  154.3194 C.3     1  UNL1        0.1022
     30 C         143.8220  130.8701  155.9186 C.ar    1  UNL1        0.1360
     31 C         143.5382  129.5325  156.5351 C.ar    1  UNL1        0.0366
     32 C         142.2887  128.7878  156.1690 C.ar    1  UNL1        0.0031
     33 C         141.3229  129.3808  155.1864 C.ar    1  UNL1       -0.0001
     34 C         141.6067  130.7184  154.5698 C.ar    1  UNL1        0.0001
     35 C         142.8563  131.4631  154.9359 C.ar    1  UNL1        0.0279
     36 C         145.3034  132.0384  157.7048 C.3     1  UNL1        0.2525
     37 O         145.0716  131.6147  156.2847 O.3     1  UNL1       -0.4717
@<TRIPOS>BOND
     1    36    37    1
     2    37    30    1
     3    30    31   ar
     4    31    32   ar
     5    32    33   ar
     6    33    34   ar
     7    34    35   ar
     8    35    29    1
     9    29    21    1
    10    21    22    1
    11    22    23    1
    12    23    24    1
    13    24    27    1
    14    27    28    3
    15    24    20    1
    16    20     1    1
    17     1     2   am
    18     2     3    2
    19     2     5    1
    20     5     6   ar
    21     6     7   ar
    22     7    16    1
    23    16    17    1
    24    17    18    1
    25    17    19    1
    26     7     8   ar
    27     8    10    1
    28    10    11   ar
    29    11    12   ar
    30    12    13   ar
    31    13    14   ar
    32    14    15   ar
    33     8     9   ar
    34    24    25    1
    35    25    26    1
    36    35    30   ar
    37    26    21    1
    38     9     5   ar
    39    15    10   ar
    40     1     4    1
@<TRIPOS>MOLECULE
*****
 37 40 0 0 0
SMALL
GASTEIGER

@<TRIPOS>ATOM
      1 N         141.6652  138.2818  159.2509 N.am    1  UNL1       -0.2985
      2 C         142.5769  138.4945  160.4229 C.2     1  UNL1        0.2654
      3 O         144.0593  138.5863  160.2130 O.2     1  UNL1       -0.2684
      4 H         140.6923  138.2215  159.3886 H       1  UNL1        0.1498
      5 C         142.0061  138.6154  161.8048 C.ar    1  UNL1        0.1555
      6 C         140.7376  137.9812  162.2934 C.ar    1  UNL1        0.0402
      7 C         140.5512  138.3656  163.7313 C.ar    1  UNL1        0.0622
      8 N         141.7045  139.2373  164.1314 N.ar    1  UNL1       -0.2336
      9 N         142.6037  139.3917  162.9407 N.ar    1  UNL1       -0.1608
     10 C         141.9207  139.8475  165.4844 C.ar    1  UNL1        0.0824
     11 C         142.4578  139.0107  166.6075 C.ar    1  UNL1        0.0191
     12 C         142.6740  139.6210  167.9606 C.ar    1  UNL1        0.0015
     13 C         142.3530  141.0680  168.1906 C.ar    1  UNL1        0.0001
     14 C         141.8158  141.9049  167.0676 C.ar    1  UNL1        0.0015
     15 C         141.5997  141.2946  165.7145 C.ar    1  UNL1        0.0191
     16 C         139.4116  137.9511  164.6141 C.3     1  UNL1        0.0459
     17 C         138.5643  138.9923  165.2836 C.3     1  UNL1        0.0059
     18 C         138.0910  138.7825  166.6914 C.3     1  UNL1        0.0004
     19 C         138.1904  140.2433  164.5451 C.3     1  UNL1        0.0004
     20 C         142.2361  138.1609  157.8690 C.3     1  UNL1        0.1038
     21 N         142.3139  134.9192  155.1067 N.3     1  UNL1       -0.2688
     22 C         140.9107  135.4493  155.1182 C.3     1  UNL1        0.0735
     23 C         140.5539  136.6080  156.0014 C.3     1  UNL1        0.0332
     24 C         141.6003  137.2366  156.8732 C.3     1  UNL1        0.1000
     25 C         143.0035  136.7066  156.8616 C.3     1  UNL1        0.0332
     26 C         143.3603  135.5479  155.9784 C.3     1  UNL1        0.0735
     27 C         140.4179  138.0877  157.2305 C.1     1  UNL1        0.0729
     28 N         139.2356  138.9387  157.5879 N.1     1  UNL1       -0.1959
     29 C         142.6707  133.7605  154.2235 C.3     1  UNL1        0.1022
     30 C         143.3480  131.6053  155.5067 C.ar    1  UNL1        0.1360
     31 C         143.0406  130.2046  155.9465 C.ar    1  UNL1        0.0366
     32 C         141.7486  129.5583  155.5428 C.ar    1  UNL1        0.0031
     33 C         140.7640  130.3127  154.6994 C.ar    1  UNL1       -0.0001
     34 C         141.0714  131.7134  154.2596 C.ar    1  UNL1        0.0001
     35 C         142.3634  132.3597  154.6633 C.ar    1  UNL1        0.0279
     36 C         145.2094  132.0016  157.2754 C.3     1  UNL1        0.2525
     37 O         144.6400  132.2517  155.9104 O.3     1  UNL1       -0.4717
@<TRIPOS>BOND
     1    36    37    1
     2    37    30    1
     3    30    31   ar
     4    31    32   ar
     5    32    33   ar
     6    33    34   ar
     7    34    35   ar
     8    35    29    1
     9    29    21    1
    10    21    22    1
    11    22    23    1
    12    23    24    1
    13    24    27    1
    14    27    28    3
    15    24    20    1
    16    20     1    1
    17     1     2   am
    18     2     3    2
    19     2     5    1
    20     5     6   ar
    21     6     7   ar
    22     7    16    1
    23    16    17    1
    24    17    18    1
    25    17    19    1
    26     7     8   ar
    27     8    10    1
    28    10    11   ar
    29    11    12   ar
    30    12    13   ar
    31    13    14   ar
    32    14    15   ar
    33     8     9   ar
    34    24    25    1
    35    25    26    1
    36    35    30   ar
    37    26    21    1
    38     9     5   ar
    39    15    10   ar
    40     1     4    1
@<TRIPOS>MOLECULE
*****
 37 40 0 0 0
SMALL
GASTEIGER

@<TRIPOS>ATOM
      1 N         140.6168  138.3139  158.4988 N.am    1  UNL1       -0.2985
      2 C         139.4525  139.1663  158.9083 C.2     1  UNL1        0.2654
      3 O         138.4766  139.6490  157.8765 O.2     1  UNL1       -0.2684
      4 H         141.2573  137.9971  159.1760 H       1  UNL1        0.1498
      5 C         139.2640  139.5361  160.3497 C.ar    1  UNL1        0.1555
      6 C         138.9712  138.5858  161.4728 C.ar    1  UNL1        0.0402
      7 C         138.8615  139.3836  162.7383 C.ar    1  UNL1        0.0622
      8 N         139.0865  140.8269  162.3975 N.ar    1  UNL1       -0.2336
      9 N         139.3353  140.9212  160.9212 N.ar    1  UNL1       -0.1608
     10 C         139.0664  141.9744  163.3632 C.ar    1  UNL1        0.0824
     11 C         137.7883  142.7167  163.6195 C.ar    1  UNL1        0.0191
     12 C         137.7682  143.8643  164.5853 C.ar    1  UNL1        0.0015
     13 C         139.0261  144.2696  165.2947 C.ar    1  UNL1        0.0001
     14 C         140.3042  143.5274  165.0384 C.ar    1  UNL1        0.0015
     15 C         140.3243  142.3799  164.0726 C.ar    1  UNL1        0.0191
     16 C         138.5768  138.8344  164.1049 C.3     1  UNL1        0.0459
     17 C         139.6122  138.9379  165.1854 C.3     1  UNL1        0.0059
     18 C         139.2357  139.4699  166.5364 C.3     1  UNL1        0.0004
     19 C         141.0241  138.5093  164.9148 C.3     1  UNL1        0.0004
     20 C         140.8052  137.9441  157.0573 C.3     1  UNL1        0.1038
     21 N         142.3444  134.5961  154.9203 N.3     1  UNL1       -0.2688
     22 C         143.4787  135.1603  155.7236 C.3     1  UNL1        0.0735
     23 C         143.2564  136.3609  156.5948 C.3     1  UNL1        0.0332
     24 C         141.8998  136.9974  156.6628 C.3     1  UNL1        0.1000
     25 C         140.7656  136.4333  155.8595 C.3     1  UNL1        0.0332
     26 C         140.9879  135.2327  154.9883 C.3     1  UNL1        0.0735
     27 C         142.6539  137.8904  157.6031 C.1     1  UNL1        0.0729
     28 N         143.4080  138.7832  158.5434 N.1     1  UNL1       -0.1959
     29 C         142.5667  133.3955  154.0491 C.3     1  UNL1        0.1022
     30 C         143.1856  131.2042  155.3003 C.ar    1  UNL1        0.1360
     31 C         142.8076  129.8392  155.7939 C.ar    1  UNL1        0.0366
     32 C         141.4329  129.3002  155.5300 C.ar    1  UNL1        0.0031
     33 C         140.4362  130.1263  154.7724 C.ar    1  UNL1       -0.0001
     34 C         140.8141  131.4914  154.2788 C.ar    1  UNL1        0.0001
     35 C         142.1888  132.0303  154.5428 C.ar    1  UNL1        0.0279
     36 C         145.0620  131.8610  156.9729 C.3     1  UNL1        0.2525
     37 O         144.5603  131.7432  155.5643 O.3     1  UNL1       -0.4717
@<TRIPOS>BOND
     1    36    37    1
     2    37    30    1
     3    30    31   ar
     4    31    32   ar
     5    32    33   ar
     6    33    34   ar
     7    34    35   ar
     8    35    29    1
     9    29    21    1
    10    21    22    1
    11    22    23    1
    12    23    24    1
    13    24    27    1
    14    27    28    3
    15    24    20    1
    16    20     1    1
    17     1     2   am
    18     2     3    2
    19     2     5    1
    20     5     6   ar
    21     6     7   ar
    22     7    16    1
    23    16    17    1
    24    17    18    1
    25    17    19    1
    26     7     8   ar
    27     8    10    1
    28    10    11   ar
    29    11    12   ar
    30    12    13   ar
    31    13    14   ar
    32    14    15   ar
    33     8     9   ar
    34    24    25    1
    35    25    26    1
    36    35    30   ar
    37    26    21    1
    38     9     5   ar
    39    15    10   ar
    40     1     4    1
@<TRIPOS>MOLECULE
*****
 37 40 0 0 0
SMALL
GASTEIGER

@<TRIPOS>ATOM
      1 N         139.9233  139.2596  159.1950 N.am    1  UNL1       -0.2985
      2 C         138.6908  140.0179  159.5902 C.2     1  UNL1        0.2654
      3 O         137.5866  140.2248  158.5963 O.2     1  UNL1       -0.2684
      4 H         140.6480  139.1238  159.8473 H       1  UNL1        0.1498
      5 C         138.5626  140.5693  160.9792 C.ar    1  UNL1        0.1555
      6 C         137.9824  141.9023  161.3487 C.ar    1  UNL1        0.0402
      7 C         138.0533  142.0413  162.8405 C.ar    1  UNL1        0.0622
      8 N         138.6774  140.7942  163.3932 N.ar    1  UNL1       -0.2336
      9 N         138.9922  139.8845  162.2428 N.ar    1  UNL1       -0.1608
     10 C         138.9405  140.5073  164.8417 C.ar    1  UNL1        0.0824
     11 C         138.1420  139.4570  165.5554 C.ar    1  UNL1        0.0191
     12 C         138.4052  139.1701  167.0040 C.ar    1  UNL1        0.0015
     13 C         139.4669  139.9334  167.7389 C.ar    1  UNL1        0.0001
     14 C         140.2654  140.9837  167.0253 C.ar    1  UNL1        0.0015
     15 C         140.0022  141.2706  165.5767 C.ar    1  UNL1        0.0191
     16 C         137.5828  143.2204  163.6396 C.3     1  UNL1        0.0459
     17 C         138.5442  144.3142  163.9995 C.3     1  UNL1        0.0059
     18 C         138.6151  144.8158  165.4114 C.3     1  UNL1        0.0004
     19 C         139.4345  144.9064  162.9475 C.3     1  UNL1        0.0004
     20 C         140.0514  138.7083  157.8059 C.3     1  UNL1        0.1038
     21 N         142.2742  135.8794  155.5254 N.3     1  UNL1       -0.2688
     22 C         143.2602  136.6292  156.3715 C.3     1  UNL1        0.0735
     23 C         142.7849  137.7083  157.2986 C.3     1  UNL1        0.0332
     24 C         141.3236  138.0376  157.3796 C.3     1  UNL1        0.1000
     25 C         140.3378  137.2878  156.5335 C.3     1  UNL1        0.0332
     26 C         140.8131  136.2087  155.6064 C.3     1  UNL1        0.0735
     27 C         141.8677  139.0204  158.3738 C.1     1  UNL1        0.0729
     28 N         142.4116  140.0031  159.3679 N.1     1  UNL1       -0.1959
     29 C         142.7495  134.8002  154.5982 C.3     1  UNL1        0.1022
     30 C         143.1624  132.5767  155.8772 C.ar    1  UNL1        0.1360
     31 C         142.8013  131.1456  156.1445 C.ar    1  UNL1        0.0366
     32 C         141.6664  130.5068  155.4002 C.ar    1  UNL1        0.0031
     33 C         140.8926  131.2991  154.3886 C.ar    1  UNL1       -0.0001
     34 C         141.2536  132.7302  154.1213 C.ar    1  UNL1        0.0001
     35 C         142.3885  133.3690  154.8656 C.ar    1  UNL1        0.0279
     36 C         144.8780  132.5393  157.8279 C.3     1  UNL1        0.2525
     37 O         144.2972  133.2155  156.6215 O.3     1  UNL1       -0.4717
@<TRIPOS>BOND
     1    36    37    1
     2    37    30    1
     3    30    31   ar
     4    31    32   ar
     5    32    33   ar
     6    33    34   ar
     7    34    35   ar
     8    35    29    1
     9    29    21    1
    10    21    22    1
    11    22    23    1
    12    23    24    1
    13    24    27    1
    14    27    28    3
    15    24    20    1
    16    20     1    1
    17     1     2   am
    18     2     3    2
    19     2     5    1
    20     5     6   ar
    21     6     7   ar
    22     7    16    1
    23    16    17    1
    24    17    18    1
    25    17    19    1
    26     7     8   ar
    27     8    10    1
    28    10    11   ar
    29    11    12   ar
    30    12    13   ar
    31    13    14   ar
    32    14    15   ar
    33     8     9   ar
    34    24    25    1
    35    25    26    1
    36    35    30   ar
    37    26    21    1
    38     9     5   ar
    39    15    10   ar
    40     1     4    1
@<TRIPOS>MOLECULE
*****
 37 40 0 0 0
SMALL
GASTEIGER

@<TRIPOS>ATOM
      1 N         142.1916  138.7881  158.2827 N.am    1  UNL1       -0.2985
      2 C         143.0774  139.4263  159.3114 C.2     1  UNL1        0.2654
      3 O         144.2840  140.2070  158.8816 O.2     1  UNL1       -0.2684
      4 H         141.3997  138.2757  158.5647 H       1  UNL1        0.1498
      5 C         142.7566  139.2838  160.7697 C.ar    1  UNL1        0.1555
      6 C         143.7529  139.1378  161.8815 C.ar    1  UNL1        0.0402
      7 C         142.9952  139.0261  163.1712 C.ar    1  UNL1        0.0622
      8 N         141.5306  139.1030  162.8565 N.ar    1  UNL1       -0.2336
      9 N         141.3831  139.2622  161.3723 N.ar    1  UNL1       -0.1608
     10 C         140.4102  139.0329  163.8513 C.ar    1  UNL1        0.0824
     11 C         139.9747  137.7058  164.3983 C.ar    1  UNL1        0.0191
     12 C         138.8542  137.6358  165.3931 C.ar    1  UNL1        0.0015
     13 C         138.1693  138.8928  165.8409 C.ar    1  UNL1        0.0001
     14 C         138.6047  140.2200  165.2940 C.ar    1  UNL1        0.0015
     15 C         139.7252  140.2900  164.2992 C.ar    1  UNL1        0.0191
     16 C         143.5965  138.8656  164.5360 C.3     1  UNL1        0.0459
     17 C         143.2076  139.8018  165.6417 C.3     1  UNL1        0.0059
     18 C         143.3367  141.2838  165.4497 C.3     1  UNL1        0.0004
     19 C         142.6896  139.2558  166.9393 C.3     1  UNL1        0.0004
     20 C         142.5125  138.9306  156.8244 C.3     1  UNL1        0.1038
     21 N         141.9556  135.0391  155.1841 N.3     1  UNL1       -0.2688
     22 C         143.3235  135.4953  154.7707 C.3     1  UNL1        0.0735
     23 C         143.8246  136.8437  155.1958 C.3     1  UNL1        0.0332
     24 C         142.9579  137.7359  156.0342 C.3     1  UNL1        0.1000
     25 C         141.5901  137.2796  156.4476 C.3     1  UNL1        0.0332
     26 C         141.0889  135.9312  156.0225 C.3     1  UNL1        0.0735
     27 C         144.1710  138.6071  155.8952 C.1     1  UNL1        0.0729
     28 N         145.3842  139.4783  155.7563 N.1     1  UNL1       -0.1959
     29 C         141.4544  133.6907  154.7591 C.3     1  UNL1        0.1022
     30 C         143.0927  132.0182  155.8856 C.ar    1  UNL1        0.1360
     31 C         144.0437  130.8627  155.7832 C.ar    1  UNL1        0.0366
     32 C         144.3075  130.2243  154.4517 C.ar    1  UNL1        0.0031
     33 C         143.6203  130.7413  153.2227 C.ar    1  UNL1       -0.0001
     34 C         142.6693  131.8968  153.3252 C.ar    1  UNL1        0.0001
     35 C         142.4055  132.5352  154.6567 C.ar    1  UNL1        0.0279
     36 C         143.8861  133.4983  157.8680 C.3     1  UNL1        0.2525
     37 O         142.8288  132.6566  157.2171 O.3     1  UNL1       -0.4717
@<TRIPOS>BOND
     1    36    37    1
     2    37    30    1
     3    30    31   ar
     4    31    32   ar
     5    32    33   ar
     6    33    34   ar
     7    34    35   ar
     8    35    29    1
     9    29    21    1
    10    21    22    1
    11    22    23    1
    12    23    24    1
    13    24    27    1
    14    27    28    3
    15    24    20    1
    16    20     1    1
    17     1     2   am
    18     2     3    2
    19     2     5    1
    20     5     6   ar
    21     6     7   ar
    22     7    16    1
    23    16    17    1
    24    17    18    1
    25    17    19    1
    26     7     8   ar
    27     8    10    1
    28    10    11   ar
    29    11    12   ar
    30    12    13   ar
    31    13    14   ar
    32    14    15   ar
    33     8     9   ar
    34    24    25    1
    35    25    26    1
    36    35    30   ar
    37    26    21    1
    38     9     5   ar
    39    15    10   ar
    40     1     4    1
@<TRIPOS>MOLECULE
*****
 37 40 0 0 0
SMALL
GASTEIGER

@<TRIPOS>ATOM
      1 N         141.2364  138.2749  158.8585 N.am    1  UNL1       -0.2985
      2 C         140.0380  138.7151  159.6461 C.2     1  UNL1        0.2654
      3 O         138.7758  139.1054  158.9359 O.2     1  UNL1       -0.2684
      4 H         142.0648  138.0187  159.3247 H       1  UNL1        0.1498
      5 C         140.1019  138.7651  161.1439 C.ar    1  UNL1        0.1555
      6 C         139.1888  138.0430  162.0899 C.ar    1  UNL1        0.0402
      7 C         139.6127  138.3775  163.4894 C.ar    1  UNL1        0.0622
      8 N         140.7879  139.3063  163.4083 N.ar    1  UNL1       -0.2336
      9 N         141.0902  139.5458  161.9587 N.ar    1  UNL1       -0.1608
     10 C         141.5303  139.8926  164.5723 C.ar    1  UNL1        0.0824
     11 C         142.0698  138.9955  165.6466 C.ar    1  UNL1        0.0191
     12 C         142.8123  139.5819  166.8106 C.ar    1  UNL1        0.0015
     13 C         143.0151  141.0653  166.9003 C.ar    1  UNL1        0.0001
     14 C         142.4756  141.9625  165.8261 C.ar    1  UNL1        0.0015
     15 C         141.7332  141.3761  164.6621 C.ar    1  UNL1        0.0191
     16 C         138.9738  137.8720  164.7488 C.3     1  UNL1        0.0459
     17 C         138.2397  138.8201  165.6501 C.3     1  UNL1        0.0059
     18 C         137.6700  138.3311  166.9487 C.3     1  UNL1        0.0004
     19 C         138.0753  140.2572  165.2528 C.3     1  UNL1        0.0004
     20 C         141.1724  138.2250  157.3608 C.3     1  UNL1        0.1038
     21 N         142.4030  135.0904  154.7522 N.3     1  UNL1       -0.2688
     22 C         143.6368  135.8580  155.1247 C.3     1  UNL1        0.0735
     23 C         143.5365  137.0387  156.0443 C.3     1  UNL1        0.0332
     24 C         142.2023  137.4520  156.5914 C.3     1  UNL1        0.1000
     25 C         140.9686  136.6844  156.2190 C.3     1  UNL1        0.0332
     26 C         141.0689  135.5036  155.2994 C.3     1  UNL1        0.0735
     27 C         143.0784  138.4880  157.2311 C.1     1  UNL1        0.0729
     28 N         143.9544  139.5241  157.8707 N.1     1  UNL1       -0.1959
     29 C         142.5034  133.9096  153.8326 C.3     1  UNL1        0.1022
     30 C         142.9567  131.7875  155.2613 C.ar    1  UNL1        0.1360
     31 C         142.5377  130.4282  155.7376 C.ar    1  UNL1        0.0366
     32 C         141.2464  129.8318  155.2614 C.ar    1  UNL1        0.0031
     33 C         140.3741  130.5946  154.3090 C.ar    1  UNL1       -0.0001
     34 C         140.7931  131.9539  153.8328 C.ar    1  UNL1        0.0001
     35 C         142.0844  132.5503  154.3089 C.ar    1  UNL1        0.0279
     36 C         144.4237  132.7339  157.1854 C.3     1  UNL1        0.2525
     37 O         144.2481  132.3839  155.7375 O.3     1  UNL1       -0.4717
@<TRIPOS>BOND
     1    36    37    1
     2    37    30    1
     3    30    31   ar
     4    31    32   ar
     5    32    33   ar
     6    33    34   ar
     7    34    35   ar
     8    35    29    1
     9    29    21    1
    10    21    22    1
    11    22    23    1
    12    23    24    1
    13    24    27    1
    14    27    28    3
    15    24    20    1
    16    20     1    1
    17     1     2   am
    18     2     3    2
    19     2     5    1
    20     5     6   ar
    21     6     7   ar
    22     7    16    1
    23    16    17    1
    24    17    18    1
    25    17    19    1
    26     7     8   ar
    27     8    10    1
    28    10    11   ar
    29    11    12   ar
    30    12    13   ar
    31    13    14   ar
    32    14    15   ar
    33     8     9   ar
    34    24    25    1
    35    25    26    1
    36    35    30   ar
    37    26    21    1
    38     9     5   ar
    39    15    10   ar
    40     1     4    1
@<TRIPOS>MOLECULE
*****
 37 40 0 0 0
SMALL
GASTEIGER

@<TRIPOS>ATOM
      1 N         139.9968  139.6350  158.8161 N.am    1  UNL1       -0.2985
      2 C         138.7123  140.2242  159.3190 C.2     1  UNL1        0.2654
      3 O         137.5143  140.2905  158.4187 O.2     1  UNL1       -0.2684
      4 H         140.7830  139.5915  159.4069 H       1  UNL1        0.1498
      5 C         138.6258  140.7473  160.7222 C.ar    1  UNL1        0.1555
      6 C         138.0667  142.0767  161.1347 C.ar    1  UNL1        0.0402
      7 C         138.1786  142.1837  162.6267 C.ar    1  UNL1        0.0622
      8 N         138.8068  140.9205  163.1363 N.ar    1  UNL1       -0.2336
      9 N         139.0832  140.0328  161.9592 N.ar    1  UNL1       -0.1608
     10 C         139.1061  140.6011  164.5709 C.ar    1  UNL1        0.0824
     11 C         140.2712  141.2510  165.2568 C.ar    1  UNL1        0.0191
     12 C         140.5705  140.9315  166.6915 C.ar    1  UNL1        0.0015
     13 C         139.7047  139.9623  167.4404 C.ar    1  UNL1        0.0001
     14 C         138.5396  139.3124  166.7546 C.ar    1  UNL1        0.0015
     15 C         138.2403  139.6318  165.3199 C.ar    1  UNL1        0.0191
     16 C         137.7394  143.3493  163.4625 C.3     1  UNL1        0.0459
     17 C         138.7597  144.2857  164.0388 C.3     1  UNL1        0.0059
     18 C         138.5873  144.8186  165.4303 C.3     1  UNL1        0.0004
     19 C         139.9526  144.6892  163.2235 C.3     1  UNL1        0.0004
     20 C         140.0832  139.1120  157.4129 C.3     1  UNL1        0.1038
     21 N         142.4170  136.0360  155.6138 N.3     1  UNL1       -0.2688
     22 C         143.3507  137.1691  155.9213 C.3     1  UNL1        0.0735
     23 C         142.8277  138.4176  156.5675 C.3     1  UNL1        0.0332
     24 C         141.3709  138.5331  156.9062 C.3     1  UNL1        0.1000
     25 C         140.4373  137.4001  156.5987 C.3     1  UNL1        0.0332
     26 C         140.9603  136.1516  155.9525 C.3     1  UNL1        0.0735
     27 C         141.8574  139.8672  157.3896 C.1     1  UNL1        0.0729
     28 N         142.3437  141.2012  157.8731 N.1     1  UNL1       -0.1959
     29 C         142.9400  134.7875  154.9676 C.3     1  UNL1        0.1022
     30 C         143.8029  132.3518  155.2377 C.ar    1  UNL1        0.1360
     31 C         144.4476  131.2875  156.0752 C.ar    1  UNL1        0.0366
     32 C         144.8743  131.5944  157.4801 C.ar    1  UNL1        0.0031
     33 C         144.6563  132.9657  158.0475 C.ar    1  UNL1       -0.0001
     34 C         144.0115  134.0300  157.2100 C.ar    1  UNL1        0.0001
     35 C         143.5848  133.7231  155.8051 C.ar    1  UNL1        0.0279
     36 C         142.1907  131.1597  153.5855 C.3     1  UNL1        0.2525
     37 O         143.3762  132.0448  153.8328 O.3     1  UNL1       -0.4717
@<TRIPOS>BOND
     1    36    37    1
     2    37    30    1
     3    30    31   ar
     4    31    32   ar
     5    32    33   ar
     6    33    34   ar
     7    34    35   ar
     8    35    29    1
     9    29    21    1
    10    21    22    1
    11    22    23    1
    12    23    24    1
    13    24    27    1
    14    27    28    3
    15    24    20    1
    16    20     1    1
    17     1     2   am
    18     2     3    2
    19     2     5    1
    20     5     6   ar
    21     6     7   ar
    22     7    16    1
    23    16    17    1
    24    17    18    1
    25    17    19    1
    26     7     8   ar
    27     8    10    1
    28    10    11   ar
    29    11    12   ar
    30    12    13   ar
    31    13    14   ar
    32    14    15   ar
    33     8     9   ar
    34    24    25    1
    35    25    26    1
    36    35    30   ar
    37    26    21    1
    38     9     5   ar
    39    15    10   ar
    40     1     4    1
@<TRIPOS>MOLECULE
*****
 37 40 0 0 0
SMALL
GASTEIGER

@<TRIPOS>ATOM
      1 N         142.1757  137.3334  157.8764 N.am    1  UNL1       -0.2985
      2 C         143.0225  136.6955  156.8152 C.2     1  UNL1        0.2654
      3 O         144.0821  137.4970  156.1189 O.2     1  UNL1       -0.2684
      4 H         141.4801  136.8074  158.3334 H       1  UNL1        0.1498
      5 C         142.8096  135.2563  156.4502 C.ar    1  UNL1        0.1555
      6 C         141.6690  134.7107  155.6431 C.ar    1  UNL1        0.0402
      7 C         141.8544  133.2271  155.5224 C.ar    1  UNL1        0.0622
      8 N         143.1096  132.8557  156.2549 N.ar    1  UNL1       -0.2336
      9 N         143.6999  134.1098  156.8284 N.ar    1  UNL1       -0.1608
     10 C         143.6752  131.4731  156.3903 C.ar    1  UNL1        0.0824
     11 C         143.5005  130.7134  157.6718 C.ar    1  UNL1        0.0191
     12 C         144.0661  129.3307  157.8072 C.ar    1  UNL1        0.0015
     13 C         144.8064  128.7078  156.6609 C.ar    1  UNL1        0.0001
     14 C         144.9811  129.4674  155.3794 C.ar    1  UNL1        0.0015
     15 C         144.4155  130.8501  155.2441 C.ar    1  UNL1        0.0191
     16 C         140.9445  132.2810  154.7966 C.3     1  UNL1        0.0459
     17 C         141.3495  131.7252  153.4634 C.3     1  UNL1        0.0059
     18 C         141.1406  130.2706  153.1626 C.3     1  UNL1        0.0004
     19 C         141.9632  132.6241  152.4312 C.3     1  UNL1        0.0004
     20 C         142.3886  138.7726  158.2412 C.3     1  UNL1        0.1038
     21 N         142.5697  138.5918  162.4932 N.3     1  UNL1       -0.2688
     22 C         143.6901  139.4834  162.0461 C.3     1  UNL1        0.0735
     23 C         143.8974  139.7520  160.5850 C.3     1  UNL1        0.0332
     24 C         142.9844  139.1290  159.5710 C.3     1  UNL1        0.1000
     25 C         141.8641  138.2374  160.0181 C.3     1  UNL1        0.0332
     26 C         141.6568  137.9688  161.4792 C.3     1  UNL1        0.0735
     27 C         143.8978  139.8969  158.6621 C.1     1  UNL1        0.0729
     28 N         144.8112  140.6647  157.7532 N.1     1  UNL1       -0.1959
     29 C         142.3624  138.3232  163.9543 C.3     1  UNL1        0.1022
     30 C         140.6782  139.9787  165.0372 C.ar    1  UNL1        0.1360
     31 C         139.3437  140.2476  165.6672 C.ar    1  UNL1        0.0366
     32 C         138.3591  139.1300  165.8444 C.ar    1  UNL1        0.0031
     33 C         138.7089  137.7434  165.3916 C.ar    1  UNL1       -0.0001
     34 C         140.0433  137.4745  164.7616 C.ar    1  UNL1        0.0001
     35 C         141.0279  138.5921  164.5844 C.ar    1  UNL1        0.0279
     36 C         141.5453  142.0200  163.6840 C.3     1  UNL1        0.2525
     37 O         141.6628  141.0963  164.8600 O.3     1  UNL1       -0.4717
@<TRIPOS>BOND
     1    36    37    1
     2    37    30    1
     3    30    31   ar
     4    31    32   ar
     5    32    33   ar
     6    33    34   ar
     7    34    35   ar
     8    35    29    1
     9    29    21    1
    10    21    22    1
    11    22    23    1
    12    23    24    1
    13    24    27    1
    14    27    28    3
    15    24    20    1
    16    20     1    1
    17     1     2   am
    18     2     3    2
    19     2     5    1
    20     5     6   ar
    21     6     7   ar
    22     7    16    1
    23    16    17    1
    24    17    18    1
    25    17    19    1
    26     7     8   ar
    27     8    10    1
    28    10    11   ar
    29    11    12   ar
    30    12    13   ar
    31    13    14   ar
    32    14    15   ar
    33     8     9   ar
    34    24    25    1
    35    25    26    1
    36    35    30   ar
    37    26    21    1
    38     9     5   ar
    39    15    10   ar
    40     1     4    1
@<TRIPOS>MOLECULE
*****
 37 40 0 0 0
SMALL
GASTEIGER

@<TRIPOS>ATOM
      1 N         141.4343  144.9784  161.4643 N.am    1  UNL1       -0.2985
      2 C         140.3296  145.5120  160.6011 C.2     1  UNL1        0.2654
      3 O         139.2617  146.3783  161.2002 O.2     1  UNL1       -0.2684
      4 H         142.1353  144.4098  161.0712 H       1  UNL1        0.1498
      5 C         140.2930  145.1793  159.1390 C.ar    1  UNL1        0.1555
      6 C         139.6217  143.9880  158.5224 C.ar    1  UNL1        0.0402
      7 C         139.8350  144.0519  157.0390 C.ar    1  UNL1        0.0622
      8 N         140.6382  145.2827  156.7388 N.ar    1  UNL1       -0.2336
      9 N         140.9212  145.9795  158.0367 N.ar    1  UNL1       -0.1608
     10 C         141.0806  145.7370  155.3795 C.ar    1  UNL1        0.0824
     11 C         140.3540  146.8524  154.6881 C.ar    1  UNL1        0.0191
     12 C         140.7964  147.3067  153.3287 C.ar    1  UNL1        0.0015
     13 C         141.9655  146.6456  152.6608 C.ar    1  UNL1        0.0001
     14 C         142.6922  145.5302  153.3521 C.ar    1  UNL1        0.0015
     15 C         142.2497  145.0760  154.7115 C.ar    1  UNL1        0.0191
     16 C         139.3334  143.0593  156.0325 C.3     1  UNL1        0.0459
     17 C         138.5130  143.5238  154.8657 C.3     1  UNL1        0.0059
     18 C         138.9076  143.1384  153.4707 C.3     1  UNL1        0.0004
     19 C         137.2982  144.3737  155.0939 C.3     1  UNL1        0.0004
     20 C         141.4709  145.3111  162.9265 C.3     1  UNL1        0.1038
     21 N         140.7429  142.6686  166.1871 N.3     1  UNL1       -0.2688
     22 C         142.1797  142.4916  165.7942 C.3     1  UNL1        0.0735
     23 C         142.7517  143.2920  164.6619 C.3     1  UNL1        0.0332
     24 C         141.8869  144.2695  163.9225 C.3     1  UNL1        0.1000
     25 C         140.4501  144.4465  164.3154 C.3     1  UNL1        0.0332
     26 C         139.8781  143.6461  165.4477 C.3     1  UNL1        0.0735
     27 C         143.1792  144.4542  163.1836 C.1     1  UNL1        0.0729
     28 N         144.4715  144.6389  162.4449 N.1     1  UNL1       -0.1959
     29 C         140.1709  141.8682  167.3194 C.3     1  UNL1        0.1022
     30 C         141.4198  141.8824  169.5976 C.ar    1  UNL1        0.1360
     31 C         142.3345  141.2155  170.5817 C.ar    1  UNL1        0.0366
     32 C         142.9150  139.8675  170.2718 C.ar    1  UNL1        0.0031
     33 C         142.5808  139.1864  168.9779 C.ar    1  UNL1       -0.0001
     34 C         141.6661  139.8533  167.9938 C.ar    1  UNL1        0.0001
     35 C         141.0856  141.2013  168.3036 C.ar    1  UNL1        0.0279
     36 C         139.6200  143.3406  170.7739 C.3     1  UNL1        0.2525
     37 O         140.8393  143.2303  169.9074 O.3     1  UNL1       -0.4717
@<TRIPOS>BOND
     1    36    37    1
     2    37    30    1
     3    30    31   ar
     4    31    32   ar
     5    32    33   ar
     6    33    34   ar
     7    34    35   ar
     8    35    29    1
     9    29    21    1
    10    21    22    1
    11    22    23    1
    12    23    24    1
    13    24    27    1
    14    27    28    3
    15    24    20    1
    16    20     1    1
    17     1     2   am
    18     2     3    2
    19     2     5    1
    20     5     6   ar
    21     6     7   ar
    22     7    16    1
    23    16    17    1
    24    17    18    1
    25    17    19    1
    26     7     8   ar
    27     8    10    1
    28    10    11   ar
    29    11    12   ar
    30    12    13   ar
    31    13    14   ar
    32    14    15   ar
    33     8     9   ar
    34    24    25    1
    35    25    26    1
    36    35    30   ar
    37    26    21    1
    38     9     5   ar
    39    15    10   ar
    40     1     4    1
