@<TRIPOS>MOLECULE
*****
 35 38 0 0 0
SMALL
GASTEIGER

@<TRIPOS>ATOM
      1 C         143.1746  138.7114  161.1820 C.ar    1  UNL1        0.1345
      2 C         142.0585  137.9383  161.8200 C.ar    1  UNL1        0.0494
      3 C         141.7466  138.1335  163.2741 C.ar    1  UNL1        0.0567
      4 C         142.5507  139.1016  164.0903 C.ar    1  UNL1        0.0740
      5 C         143.6667  139.8747  163.4524 C.ar    1  UNL1        0.1097
      6 N         143.9786  139.6795  161.9982 N.ar    1  UNL1       -0.2283
      7 N         143.4865  138.5162  159.7278 N.pl3   1  UNL1       -0.2821
      8 H         144.4189  138.5569  159.4146 H       1  UNL1        0.1551
      9 C         140.1601  137.7447  156.7969 C.ar    1  UNL1        0.1683
     10 C         140.0063  138.8087  157.8430 C.ar    1  UNL1        0.1299
     11 N         141.1151  139.0658  158.8199 N.ar    1  UNL1       -0.2251
     12 C         142.3777  138.2591  158.7509 C.ar    1  UNL1        0.1527
     13 C         142.5315  137.1951  157.7048 C.ar    1  UNL1        0.1340
     14 N         141.4227  136.9379  156.7278 N.ar    1  UNL1       -0.2290
     15 N         137.9426  137.2304  154.8430 N.1     1  UNL1       -0.1892
     16 C         139.0513  137.4875  155.8200 C.1     1  UNL1        0.1214
     17 N         140.6306  137.3605  163.9122 N.pl3   1  UNL1       -0.3301
     18 H         140.8206  136.7466  164.6580 H       1  UNL1        0.1469
     19 C         139.2252  137.5228  163.4138 C.3     1  UNL1        0.1185
     20 C         138.6063  138.8874  163.3463 C.3     1  UNL1        0.1503
     21 C         137.8423  139.3049  162.1248 C.3     1  UNL1        0.1003
     22 N         137.2234  140.6696  162.0573 N.3     1  UNL1       -0.2933
     23 C         137.3684  141.6168  163.2114 C.3     1  UNL1        0.1011
     24 C         138.1323  141.1993  164.4329 C.3     1  UNL1        0.1592
     25 O         138.7513  139.8346  164.5003 O.3     1  UNL1       -0.3516
     26 H         136.2230  140.5324  161.9129 H       1  UNL1        0.1234
     27 C         142.2387  139.2968  165.5446 C.1     1  UNL1       -0.0593
     28 C         141.9268  139.4919  166.9987 C.1     1  UNL1       -0.0610
     29 C         141.6148  139.6871  168.4528 C.3     1  UNL1        0.1416
     30 O         143.0478  139.2911  168.6517 O.3     1  UNL1       -0.3753
     31 C         141.6024  139.7994  169.9486 C.3     1  UNL1        0.0395
     32 C         140.2269  140.2240  170.3701 C.3     1  UNL1        0.0035
     33 C         139.3891  140.3741  169.1349 C.3     1  UNL1        0.0035
     34 C         140.2470  140.0422  167.9500 C.3     1  UNL1        0.0395
     35 H         143.2573  139.3000  169.5987 H       1  UNL1        0.2114
@<TRIPOS>BOND
     1    15    16    3
     2    16     9    1
     3     9    10   ar
     4    10    11   ar
     5    11    12   ar
     6    12     7    1
     7     7     1    1
     8     1     2   ar
     9     2     3   ar
    10     3    17    1
    11    17    19    1
    12    20    19    1
    13    20    21    1
    14    21    22    1
    15    22    23    1
    16    23    24    1
    17    24    25    1
    18     3     4   ar
    19     4    27    1
    20    27    28    3
    21    28    29    1
    22    29    30    1
    23    29    31    1
    24    31    32    1
    25    32    33    1
    26    33    34    1
    27     4     5   ar
    28     5     6   ar
    29    12    13   ar
    30    13    14   ar
    31    14     9   ar
    32     6     1   ar
    33    25    20    1
    34    34    29    1
    35     7     8    1
    36    17    18    1
    37    22    26    1
    38    30    35    1
@<TRIPOS>MOLECULE
*****
 35 38 0 0 0
SMALL
GASTEIGER

@<TRIPOS>ATOM
      1 C         142.4040  137.9344  162.2516 C.ar    1  UNL1        0.1345
      2 C         140.9328  138.0539  162.5187 C.ar    1  UNL1        0.0494
      3 C         140.4505  138.6583  163.8040 C.ar    1  UNL1        0.0567
      4 C         141.4394  139.1431  164.8223 C.ar    1  UNL1        0.0740
      5 C         142.9106  139.0236  164.5553 C.ar    1  UNL1        0.1097
      6 N         143.3929  138.4192  163.2699 N.ar    1  UNL1       -0.2283
      7 N         142.8863  137.3300  160.9663 N.pl3   1  UNL1       -0.2821
      8 H         143.0460  136.3604  160.9077 H       1  UNL1        0.1551
      9 C         143.6029  139.9492  157.3779 C.ar    1  UNL1        0.1683
     10 C         143.0574  138.5635  157.1981 C.ar    1  UNL1        0.1299
     11 N         142.8186  137.6905  158.3942 N.ar    1  UNL1       -0.2251
     12 C         143.1251  138.2031  159.7701 C.ar    1  UNL1        0.1527
     13 C         143.6706  139.5888  159.9499 C.ar    1  UNL1        0.1340
     14 N         143.9094  140.4618  158.7538 N.ar    1  UNL1       -0.2290
     15 N         144.0806  141.6953  154.9856 N.1     1  UNL1       -0.1892
     16 C         143.8417  140.8222  156.1817 C.1     1  UNL1        0.1214
     17 N         138.9793  138.7778  164.0711 N.pl3   1  UNL1       -0.3301
     18 H         138.5961  138.3983  164.8947 H       1  UNL1        0.1469
     19 C         138.0920  139.4755  163.0832 C.3     1  UNL1        0.1185
     20 C         137.9670  140.9700  163.1121 C.3     1  UNL1        0.1503
     21 C         137.7868  141.7325  161.8330 C.3     1  UNL1        0.1003
     22 N         137.6619  143.2269  161.8619 N.3     1  UNL1       -0.2933
     23 C         137.7171  143.9590  163.1700 C.3     1  UNL1        0.1011
     24 C         137.8974  143.1966  164.4491 C.3     1  UNL1        0.1592
     25 O         138.0223  141.7020  164.4202 O.3     1  UNL1       -0.3516
     26 H         136.7646  143.4557  161.4341 H       1  UNL1        0.1234
     27 C         140.9571  139.7475  166.1077 C.1     1  UNL1       -0.0593
     28 C         140.4748  140.3518  167.3931 C.1     1  UNL1       -0.0610
     29 C         139.9925  140.9561  168.6784 C.3     1  UNL1        0.1416
     30 O         139.2806  139.6463  168.8441 O.3     1  UNL1       -0.3753
     31 C         139.3614  141.2866  169.9984 C.3     1  UNL1        0.0395
     32 C         139.7841  142.6743  170.3799 C.3     1  UNL1        0.0035
     33 C         140.6766  143.2016  169.2956 C.3     1  UNL1        0.0035
     34 C         140.8053  142.1396  168.2441 C.3     1  UNL1        0.0395
     35 H         138.7858  139.6505  169.6784 H       1  UNL1        0.2114
@<TRIPOS>BOND
     1    15    16    3
     2    16     9    1
     3     9    10   ar
     4    10    11   ar
     5    11    12   ar
     6    12     7    1
     7     7     1    1
     8     1     2   ar
     9     2     3   ar
    10     3    17    1
    11    17    19    1
    12    20    19    1
    13    20    21    1
    14    21    22    1
    15    22    23    1
    16    23    24    1
    17    24    25    1
    18     3     4   ar
    19     4    27    1
    20    27    28    3
    21    28    29    1
    22    29    30    1
    23    29    31    1
    24    31    32    1
    25    32    33    1
    26    33    34    1
    27     4     5   ar
    28     5     6   ar
    29    12    13   ar
    30    13    14   ar
    31    14     9   ar
    32     6     1   ar
    33    25    20    1
    34    34    29    1
    35     7     8    1
    36    17    18    1
    37    22    26    1
    38    30    35    1
@<TRIPOS>MOLECULE
*****
 35 38 0 0 0
SMALL
GASTEIGER

@<TRIPOS>ATOM
      1 C         143.3669  138.6044  165.5976 C.ar    1  UNL1        0.1345
      2 C         142.1770  138.0355  164.8831 C.ar    1  UNL1        0.0494
      3 C         142.1051  138.0889  163.3858 C.ar    1  UNL1        0.0567
      4 C         143.2231  138.7112  162.6029 C.ar    1  UNL1        0.0740
      5 C         144.4130  139.2801  163.3174 C.ar    1  UNL1        0.1097
      6 N         144.4849  139.2267  164.8148 N.ar    1  UNL1       -0.2283
      7 N         143.4388  138.5510  167.0949 N.pl3   1  UNL1       -0.2821
      8 H         144.0293  137.8986  167.5364 H       1  UNL1        0.1551
      9 C         140.9556  141.3728  169.5689 C.ar    1  UNL1        0.1683
     10 C         141.8403  140.3655  170.2416 C.ar    1  UNL1        0.1299
     11 N         142.6680  139.4249  169.4170 N.ar    1  UNL1       -0.2251
     12 C         142.6111  139.4916  167.9196 C.ar    1  UNL1        0.1527
     13 C         141.7264  140.4989  167.2468 C.ar    1  UNL1        0.1340
     14 N         140.8987  141.4395  168.0715 N.ar    1  UNL1       -0.2290
     15 N         139.3001  143.2541  171.2182 N.1     1  UNL1       -0.1892
     16 C         140.1278  142.3135  170.3936 C.1     1  UNL1        0.1214
     17 N         140.9151  137.5200  162.6713 N.pl3   1  UNL1       -0.3301
     18 H         141.0296  137.0782  161.7990 H       1  UNL1        0.1469
     19 C         139.5508  137.6244  163.2859 C.3     1  UNL1        0.1185
     20 C         138.8083  138.9271  163.2470 C.3     1  UNL1        0.1503
     21 C         137.9012  139.2392  162.0939 C.3     1  UNL1        0.1003
     22 N         137.1587  140.5419  162.0550 N.3     1  UNL1       -0.2933
     23 C         137.3233  141.5327  163.1692 C.3     1  UNL1        0.1011
     24 C         138.2305  141.2205  164.3223 C.3     1  UNL1        0.1592
     25 O         138.9730  139.9177  164.3612 O.3     1  UNL1       -0.3516
     26 H         136.1656  140.3136  162.0083 H       1  UNL1        0.1234
     27 C         143.1511  138.7646  161.1056 C.1     1  UNL1       -0.0593
     28 C         143.0792  138.8180  159.6083 C.1     1  UNL1       -0.0610
     29 C         143.0073  138.8714  158.1110 C.3     1  UNL1        0.1416
     30 O         144.2052  139.7645  158.2424 O.3     1  UNL1       -0.3753
     31 C         143.1858  139.1116  156.6411 C.3     1  UNL1        0.0395
     32 C         142.1132  138.3557  155.9143 C.3     1  UNL1        0.0035
     33 C         141.2717  137.6484  156.9350 C.3     1  UNL1        0.0035
     34 C         141.8244  137.9672  158.2926 C.3     1  UNL1        0.0395
     35 H         144.4961  140.0470  157.3612 H       1  UNL1        0.2114
@<TRIPOS>BOND
     1    15    16    3
     2    16     9    1
     3     9    10   ar
     4    10    11   ar
     5    11    12   ar
     6    12     7    1
     7     7     1    1
     8     1     2   ar
     9     2     3   ar
    10     3    17    1
    11    17    19    1
    12    20    19    1
    13    20    21    1
    14    21    22    1
    15    22    23    1
    16    23    24    1
    17    24    25    1
    18     3     4   ar
    19     4    27    1
    20    27    28    3
    21    28    29    1
    22    29    30    1
    23    29    31    1
    24    31    32    1
    25    32    33    1
    26    33    34    1
    27     4     5   ar
    28     5     6   ar
    29    12    13   ar
    30    13    14   ar
    31    14     9   ar
    32     6     1   ar
    33    25    20    1
    34    34    29    1
    35     7     8    1
    36    17    18    1
    37    22    26    1
    38    30    35    1
@<TRIPOS>MOLECULE
*****
 35 38 0 0 0
SMALL
GASTEIGER

@<TRIPOS>ATOM
      1 C         143.2558  138.6618  165.8074 C.ar    1  UNL1        0.1345
      2 C         144.2637  139.4886  165.0654 C.ar    1  UNL1        0.0494
      3 C         144.2267  139.5499  163.5672 C.ar    1  UNL1        0.0567
      4 C         143.1818  138.7844  162.8108 C.ar    1  UNL1        0.0740
      5 C         142.1739  137.9575  163.5527 C.ar    1  UNL1        0.1097
      6 N         142.2109  137.8962  165.0511 N.ar    1  UNL1       -0.2283
      7 N         143.2928  138.6005  167.3057 N.pl3   1  UNL1       -0.2821
      8 H         143.8567  137.9317  167.7572 H       1  UNL1        0.1551
      9 C         140.8262  141.4738  169.7367 C.ar    1  UNL1        0.1683
     10 C         142.0633  140.8632  170.3254 C.ar    1  UNL1        0.1299
     11 N         142.8855  139.9054  169.5150 N.ar    1  UNL1       -0.2251
     12 C         142.4706  139.5583  168.1160 C.ar    1  UNL1        0.1527
     13 C         141.2334  140.1689  167.5274 C.ar    1  UNL1        0.1340
     14 N         140.4112  141.1267  168.3377 N.ar    1  UNL1       -0.2290
     15 N         139.1818  143.3894  171.3575 N.1     1  UNL1       -0.1892
     16 C         140.0040  142.4316  170.5471 C.1     1  UNL1        0.1214
     17 N         145.2346  140.3768  162.8252 N.pl3   1  UNL1       -0.3301
     18 H         145.6822  140.0096  162.0289 H       1  UNL1        0.1469
     19 C         145.5604  141.7631  163.2965 C.3     1  UNL1        0.1185
     20 C         144.4939  142.8176  163.3189 C.3     1  UNL1        0.1503
     21 C         144.3436  143.7571  162.1593 C.3     1  UNL1        0.1003
     22 N         143.2771  144.8116  162.1817 N.3     1  UNL1       -0.2933
     23 C         142.3609  144.9267  163.3638 C.3     1  UNL1        0.1011
     24 C         142.5112  143.9873  164.5235 C.3     1  UNL1        0.1592
     25 O         143.5778  142.9327  164.5010 O.3     1  UNL1       -0.3516
     26 H         142.6864  144.6504  161.3659 H       1  UNL1        0.1234
     27 C         143.1448  138.8457  161.3125 C.1     1  UNL1       -0.0593
     28 C         143.1078  138.9069  159.8142 C.1     1  UNL1       -0.0610
     29 C         143.0709  138.9682  158.3160 C.3     1  UNL1        0.1416
     30 O         143.4664  140.4004  158.5217 O.3     1  UNL1       -0.3753
     31 C         143.1166  139.3289  156.8607 C.3     1  UNL1        0.0395
     32 C         142.7570  138.1068  156.0687 C.3     1  UNL1        0.0035
     33 C         142.4891  136.9907  157.0345 C.3     1  UNL1        0.0035
     34 C         142.6830  137.5232  158.4233 C.3     1  UNL1        0.0395
     35 H         143.5544  140.8384  157.6608 H       1  UNL1        0.2114
@<TRIPOS>BOND
     1    15    16    3
     2    16     9    1
     3     9    10   ar
     4    10    11   ar
     5    11    12   ar
     6    12     7    1
     7     7     1    1
     8     1     2   ar
     9     2     3   ar
    10     3    17    1
    11    17    19    1
    12    20    19    1
    13    20    21    1
    14    21    22    1
    15    22    23    1
    16    23    24    1
    17    24    25    1
    18     3     4   ar
    19     4    27    1
    20    27    28    3
    21    28    29    1
    22    29    30    1
    23    29    31    1
    24    31    32    1
    25    32    33    1
    26    33    34    1
    27     4     5   ar
    28     5     6   ar
    29    12    13   ar
    30    13    14   ar
    31    14     9   ar
    32     6     1   ar
    33    25    20    1
    34    34    29    1
    35     7     8    1
    36    17    18    1
    37    22    26    1
    38    30    35    1
@<TRIPOS>MOLECULE
*****
 35 38 0 0 0
SMALL
GASTEIGER

@<TRIPOS>ATOM
      1 C         141.5900  144.8489  161.3971 C.ar    1  UNL1        0.1345
      2 C         140.5535  145.2488  162.4050 C.ar    1  UNL1        0.0494
      3 C         140.5432  144.6123  163.7632 C.ar    1  UNL1        0.0567
      4 C         141.5694  143.5759  164.1136 C.ar    1  UNL1        0.0740
      5 C         142.6059  143.1760  163.1058 C.ar    1  UNL1        0.1097
      6 N         142.6162  143.8125  161.7475 N.ar    1  UNL1       -0.2283
      7 N         141.6003  145.4855  160.0389 N.pl3   1  UNL1       -0.2821
      8 H         142.1702  146.2697  159.8671 H       1  UNL1        0.1551
      9 C         139.0263  143.8107  156.7496 C.ar    1  UNL1        0.1683
     10 C         139.7233  145.1254  156.5608 C.ar    1  UNL1        0.1299
     11 N         140.5813  145.6837  157.6573 N.ar    1  UNL1       -0.2251
     12 C         140.7423  144.9272  158.9425 C.ar    1  UNL1        0.1527
     13 C         140.0453  143.6125  159.1312 C.ar    1  UNL1        0.1340
     14 N         139.1874  143.0542  158.0348 N.ar    1  UNL1       -0.2290
     15 N         137.3104  142.6942  154.5567 N.1     1  UNL1       -0.1892
     16 C         138.1684  143.2524  155.6531 C.1     1  UNL1        0.1214
     17 N         139.5066  145.0122  164.7711 N.pl3   1  UNL1       -0.3301
     18 H         139.7084  145.7120  165.4335 H       1  UNL1        0.1469
     19 C         138.1628  144.3459  164.7696 C.3     1  UNL1        0.1185
     20 C         138.0252  142.9361  164.2760 C.3     1  UNL1        0.1503
     21 C         137.4594  142.6707  162.9124 C.3     1  UNL1        0.1003
     22 N         137.3219  141.2609  162.4189 N.3     1  UNL1       -0.2933
     23 C         137.7501  140.1165  163.2890 C.3     1  UNL1        0.1011
     24 C         138.3158  140.3819  164.6526 C.3     1  UNL1        0.1592
     25 O         138.4534  141.7918  165.1461 O.3     1  UNL1       -0.3516
     26 H         137.8654  141.1959  161.5582 H       1  UNL1        0.1234
     27 C         141.5590  142.9394  165.4718 C.1     1  UNL1       -0.0593
     28 C         141.5486  142.3029  166.8300 C.1     1  UNL1       -0.0610
     29 C         141.5383  141.6664  168.1882 C.3     1  UNL1        0.1416
     30 O         140.1652  141.2112  167.7912 O.3     1  UNL1       -0.3753
     31 C         141.2408  140.9348  169.4634 C.3     1  UNL1        0.0395
     32 C         142.4322  141.0708  170.3646 C.3     1  UNL1        0.0035
     33 C         143.4660  141.8866  169.6464 C.3     1  UNL1        0.0035
     34 C         142.9134  142.2546  168.3013 C.3     1  UNL1        0.0395
     35 H         139.7749  140.6938  168.5129 H       1  UNL1        0.2114
@<TRIPOS>BOND
     1    15    16    3
     2    16     9    1
     3     9    10   ar
     4    10    11   ar
     5    11    12   ar
     6    12     7    1
     7     7     1    1
     8     1     2   ar
     9     2     3   ar
    10     3    17    1
    11    17    19    1
    12    20    19    1
    13    20    21    1
    14    21    22    1
    15    22    23    1
    16    23    24    1
    17    24    25    1
    18     3     4   ar
    19     4    27    1
    20    27    28    3
    21    28    29    1
    22    29    30    1
    23    29    31    1
    24    31    32    1
    25    32    33    1
    26    33    34    1
    27     4     5   ar
    28     5     6   ar
    29    12    13   ar
    30    13    14   ar
    31    14     9   ar
    32     6     1   ar
    33    25    20    1
    34    34    29    1
    35     7     8    1
    36    17    18    1
    37    22    26    1
    38    30    35    1
@<TRIPOS>MOLECULE
*****
 35 38 0 0 0
SMALL
GASTEIGER

@<TRIPOS>ATOM
      1 C         137.7170  139.7776  162.0247 C.ar    1  UNL1        0.1345
      2 C         138.5354  138.6391  162.5579 C.ar    1  UNL1        0.0494
      3 C         139.0884  138.7008  163.9509 C.ar    1  UNL1        0.0567
      4 C         138.8230  139.9009  164.8108 C.ar    1  UNL1        0.0740
      5 C         138.0046  141.0393  164.2777 C.ar    1  UNL1        0.1097
      6 N         137.4516  140.9777  162.8846 N.ar    1  UNL1       -0.2283
      7 N         137.1641  139.7160  160.6318 N.pl3   1  UNL1       -0.2821
      8 H         136.2844  139.3050  160.4691 H       1  UNL1        0.1551
      9 C         139.5262  141.4095  157.1963 C.ar    1  UNL1        0.1683
     10 C         138.1705  140.8153  156.9537 C.ar    1  UNL1        0.1299
     11 N         137.3831  140.2508  158.0988 N.ar    1  UNL1       -0.2251
     12 C         137.9515  140.2805  159.4866 C.ar    1  UNL1        0.1527
     13 C         139.3072  140.8747  159.7293 C.ar    1  UNL1        0.1340
     14 N         140.0945  141.4392  158.5841 N.ar    1  UNL1       -0.2290
     15 N         141.1009  142.5385  154.9060 N.1     1  UNL1       -0.1892
     16 C         140.3135  141.9740  156.0511 C.1     1  UNL1        0.1214
     17 N         139.9068  137.5623  164.4841 N.pl3   1  UNL1       -0.3301
     18 H         139.6101  137.0766  165.2874 H       1  UNL1        0.1469
     19 C         141.1772  137.1639  163.7932 C.3     1  UNL1        0.1185
     20 C         142.3518  138.0967  163.7869 C.3     1  UNL1        0.1503
     21 C         143.1994  138.2271  162.5562 C.3     1  UNL1        0.1003
     22 N         144.3740  139.1599  162.5499 N.3     1  UNL1       -0.2933
     23 C         144.7011  139.9624  163.7743 C.3     1  UNL1        0.1011
     24 C         143.8536  139.8320  165.0050 C.3     1  UNL1        0.1592
     25 O         142.6789  138.8991  165.0113 O.3     1  UNL1       -0.3516
     26 H         144.2165  139.8267  161.7943 H       1  UNL1        0.1234
     27 C         139.3760  139.9625  166.2038 C.1     1  UNL1       -0.0593
     28 C         139.9290  140.0241  167.5967 C.1     1  UNL1       -0.0610
     29 C         140.4819  140.0858  168.9897 C.3     1  UNL1        0.1416
     30 O         139.0657  139.8038  169.3955 O.3     1  UNL1       -0.3753
     31 C         140.7388  140.0884  170.4675 C.3     1  UNL1        0.0395
     32 C         142.1982  140.3592  170.6838 C.3     1  UNL1        0.0035
     33 C         142.8434  140.5239  169.3397 C.3     1  UNL1        0.0035
     34 C         141.7826  140.3548  168.2927 C.3     1  UNL1        0.0395
     35 H         139.0087  139.7627  170.3630 H       1  UNL1        0.2114
@<TRIPOS>BOND
     1    15    16    3
     2    16     9    1
     3     9    10   ar
     4    10    11   ar
     5    11    12   ar
     6    12     7    1
     7     7     1    1
     8     1     2   ar
     9     2     3   ar
    10     3    17    1
    11    17    19    1
    12    20    19    1
    13    20    21    1
    14    21    22    1
    15    22    23    1
    16    23    24    1
    17    24    25    1
    18     3     4   ar
    19     4    27    1
    20    27    28    3
    21    28    29    1
    22    29    30    1
    23    29    31    1
    24    31    32    1
    25    32    33    1
    26    33    34    1
    27     4     5   ar
    28     5     6   ar
    29    12    13   ar
    30    13    14   ar
    31    14     9   ar
    32     6     1   ar
    33    25    20    1
    34    34    29    1
    35     7     8    1
    36    17    18    1
    37    22    26    1
    38    30    35    1
@<TRIPOS>MOLECULE
*****
 35 38 0 0 0
SMALL
GASTEIGER

@<TRIPOS>ATOM
      1 C         139.9798  145.2496  161.7922 C.ar    1  UNL1        0.1345
      2 C         138.8582  144.3821  162.2818 C.ar    1  UNL1        0.0494
      3 C         138.9709  143.6868  163.6060 C.ar    1  UNL1        0.0567
      4 C         140.2052  143.8588  164.4408 C.ar    1  UNL1        0.0740
      5 C         141.3268  144.7262  163.9514 C.ar    1  UNL1        0.1097
      6 N         141.2142  145.4216  162.6270 N.ar    1  UNL1       -0.2283
      7 N         139.8671  145.9450  160.4680 N.pl3   1  UNL1       -0.2821
      8 H         139.2927  146.7392  160.3764 H       1  UNL1        0.1551
      9 C         142.1546  144.4006  156.9138 C.ar    1  UNL1        0.1683
     10 C         142.5841  144.0279  158.3017 C.ar    1  UNL1        0.1299
     11 N         141.8217  144.5427  159.4865 N.ar    1  UNL1       -0.2251
     12 C         140.6296  145.4302  159.2832 C.ar    1  UNL1        0.1527
     13 C         140.2001  145.8029  157.8953 C.ar    1  UNL1        0.1340
     14 N         140.9625  145.2881  156.7105 N.ar    1  UNL1       -0.2290
     15 N         143.6796  143.3711  154.5443 N.1     1  UNL1       -0.1892
     16 C         142.9171  143.8858  155.7290 C.1     1  UNL1        0.1214
     17 N         137.8493  142.8193  164.0956 N.pl3   1  UNL1       -0.3301
     18 H         137.3389  143.0799  164.8961 H       1  UNL1        0.1469
     19 C         137.5055  141.5550  163.3654 C.3     1  UNL1        0.1185
     20 C         138.0229  140.2376  163.8621 C.3     1  UNL1        0.1503
     21 C         138.2104  140.0119  165.3332 C.3     1  UNL1        0.1003
     22 N         138.7279  138.6946  165.8299 N.3     1  UNL1       -0.2933
     23 C         139.0579  137.6028  164.8555 C.3     1  UNL1        0.1011
     24 C         138.8705  137.8285  163.3845 C.3     1  UNL1        0.1592
     25 O         138.3530  139.1460  162.8878 O.3     1  UNL1       -0.3516
     26 H         138.0211  138.3204  166.4630 H       1  UNL1        0.1234
     27 C         140.3179  143.1634  165.7652 C.1     1  UNL1       -0.0593
     28 C         140.4306  142.4679  167.0894 C.1     1  UNL1       -0.0610
     29 C         140.5433  141.7725  168.4136 C.3     1  UNL1        0.1416
     30 O         140.7353  140.5441  167.5745 O.3     1  UNL1       -0.3753
     31 C         140.6962  140.8202  169.5624 C.3     1  UNL1        0.0395
     32 C         140.5751  141.6055  170.8347 C.3     1  UNL1        0.0035
     33 C         140.3474  143.0432  170.4722 C.3     1  UNL1        0.0035
     34 C         140.3278  143.1463  168.9759 C.3     1  UNL1        0.0395
     35 H         140.8581  139.7742  168.1517 H       1  UNL1        0.2114
@<TRIPOS>BOND
     1    15    16    3
     2    16     9    1
     3     9    10   ar
     4    10    11   ar
     5    11    12   ar
     6    12     7    1
     7     7     1    1
     8     1     2   ar
     9     2     3   ar
    10     3    17    1
    11    17    19    1
    12    20    19    1
    13    20    21    1
    14    21    22    1
    15    22    23    1
    16    23    24    1
    17    24    25    1
    18     3     4   ar
    19     4    27    1
    20    27    28    3
    21    28    29    1
    22    29    30    1
    23    29    31    1
    24    31    32    1
    25    32    33    1
    26    33    34    1
    27     4     5   ar
    28     5     6   ar
    29    12    13   ar
    30    13    14   ar
    31    14     9   ar
    32     6     1   ar
    33    25    20    1
    34    34    29    1
    35     7     8    1
    36    17    18    1
    37    22    26    1
    38    30    35    1
@<TRIPOS>MOLECULE
*****
 35 38 0 0 0
SMALL
GASTEIGER

@<TRIPOS>ATOM
      1 C         143.4305  138.8305  161.1521 C.ar    1  UNL1        0.1345
      2 C         144.3026  139.6931  162.0155 C.ar    1  UNL1        0.0494
      3 C         144.0181  139.8160  163.4831 C.ar    1  UNL1        0.0567
      4 C         142.8614  139.0764  164.0874 C.ar    1  UNL1        0.0740
      5 C         141.9894  138.2138  163.2240 C.ar    1  UNL1        0.1097
      6 N         142.2739  138.0908  161.7563 N.ar    1  UNL1       -0.2283
      7 N         143.7151  138.7076  159.6845 N.pl3   1  UNL1       -0.2821
      8 H         144.6362  138.8075  159.3516 H       1  UNL1        0.1551
      9 C         140.3586  137.8822  156.8031 C.ar    1  UNL1        0.1683
     10 C         141.5555  136.9788  156.8390 C.ar    1  UNL1        0.1299
     11 N         142.6743  137.2540  157.7994 N.ar    1  UNL1       -0.2251
     12 C         142.5963  138.4325  158.7241 C.ar    1  UNL1        0.1527
     13 C         141.3994  139.3358  158.6882 C.ar    1  UNL1        0.1340
     14 N         140.2805  139.0607  157.7278 N.ar    1  UNL1       -0.2290
     15 N         138.1209  137.3319  154.8822 N.1     1  UNL1       -0.1892
     16 C         139.2397  137.6071  155.8427 C.1     1  UNL1        0.1214
     17 N         144.8901  140.6787  164.3466 N.pl3   1  UNL1       -0.3301
     18 H         145.2489  140.3253  165.1925 H       1  UNL1        0.1469
     19 C         145.2156  142.0797  163.9210 C.3     1  UNL1        0.1185
     20 C         144.1129  143.0736  163.7064 C.3     1  UNL1        0.1503
     21 C         144.2481  144.1268  162.6468 C.3     1  UNL1        0.1003
     22 N         143.1454  145.1207  162.4322 N.3     1  UNL1       -0.2933
     23 C         141.9074  145.0615  163.2771 C.3     1  UNL1        0.1011
     24 C         141.7721  144.0084  164.3367 C.3     1  UNL1        0.1592
     25 O         142.8749  143.0144  164.5513 O.3     1  UNL1       -0.3516
     26 H         142.8450  145.0223  161.4624 H       1  UNL1        0.1234
     27 C         142.5769  139.1993  165.5551 C.1     1  UNL1       -0.0593
     28 C         142.2923  139.3222  167.0226 C.1     1  UNL1       -0.0610
     29 C         142.0078  139.4451  168.4902 C.3     1  UNL1        0.1416
     30 O         143.2617  138.6358  168.6409 O.3     1  UNL1       -0.3753
     31 C         141.9854  139.3988  169.9894 C.3     1  UNL1        0.0395
     32 C         140.7771  140.1537  170.4584 C.3     1  UNL1        0.0035
     33 C         140.0527  140.6667  169.2492 C.3     1  UNL1        0.0035
     34 C         140.8134  140.2287  168.0329 C.3     1  UNL1        0.0395
     35 H         143.4379  138.4848  169.5827 H       1  UNL1        0.2114
@<TRIPOS>BOND
     1    15    16    3
     2    16     9    1
     3     9    10   ar
     4    10    11   ar
     5    11    12   ar
     6    12     7    1
     7     7     1    1
     8     1     2   ar
     9     2     3   ar
    10     3    17    1
    11    17    19    1
    12    20    19    1
    13    20    21    1
    14    21    22    1
    15    22    23    1
    16    23    24    1
    17    24    25    1
    18     3     4   ar
    19     4    27    1
    20    27    28    3
    21    28    29    1
    22    29    30    1
    23    29    31    1
    24    31    32    1
    25    32    33    1
    26    33    34    1
    27     4     5   ar
    28     5     6   ar
    29    12    13   ar
    30    13    14   ar
    31    14     9   ar
    32     6     1   ar
    33    25    20    1
    34    34    29    1
    35     7     8    1
    36    17    18    1
    37    22    26    1
    38    30    35    1
@<TRIPOS>MOLECULE
*****
 35 38 0 0 0
SMALL
GASTEIGER

@<TRIPOS>ATOM
      1 C         143.5282  138.6553  162.7987 C.ar    1  UNL1        0.1345
      2 C         142.2518  138.0377  163.2881 C.ar    1  UNL1        0.0494
      3 C         141.5955  138.5582  164.5323 C.ar    1  UNL1        0.0567
      4 C         142.2156  139.6964  165.2874 C.ar    1  UNL1        0.0740
      5 C         143.4920  140.3140  164.7981 C.ar    1  UNL1        0.1097
      6 N         144.1483  139.7934  163.5538 N.ar    1  UNL1       -0.2283
      7 N         144.1845  138.1347  161.5545 N.pl3   1  UNL1       -0.2821
      8 H         144.9533  137.5235  161.6222 H       1  UNL1        0.1551
      9 C         142.6393  139.3668  157.5116 C.ar    1  UNL1        0.1683
     10 C         142.5452  137.9341  157.9458 C.ar    1  UNL1        0.1299
     11 N         143.0603  137.5234  159.2934 N.ar    1  UNL1       -0.2251
     12 C         143.6694  138.5454  160.2068 C.ar    1  UNL1        0.1527
     13 C         143.7635  139.9781  159.7727 C.ar    1  UNL1        0.1340
     14 N         143.2484  140.3888  158.4251 N.ar    1  UNL1       -0.2290
     15 N         141.6092  140.1882  154.8164 N.1     1  UNL1       -0.1892
     16 C         142.1242  139.7775  156.1640 C.1     1  UNL1        0.1214
     17 N         140.3191  137.9406  165.0217 N.pl3   1  UNL1       -0.3301
     18 H         140.3301  137.0435  165.4271 H       1  UNL1        0.1469
     19 C         139.0260  138.6898  164.8932 C.3     1  UNL1        0.1185
     20 C         138.5317  139.1062  163.5396 C.3     1  UNL1        0.1503
     21 C         137.7610  140.3834  163.3828 C.3     1  UNL1        0.1003
     22 N         137.2667  140.7998  162.0292 N.3     1  UNL1       -0.2933
     23 C         137.5431  139.9388  160.8323 C.3     1  UNL1        0.1011
     24 C         138.3138  138.6615  160.9891 C.3     1  UNL1        0.1592
     25 O         138.8081  138.2452  162.3428 O.3     1  UNL1       -0.3516
     26 H         137.6752  141.7140  161.8349 H       1  UNL1        0.1234
     27 C         141.5593  140.2169  166.5317 C.1     1  UNL1       -0.0593
     28 C         140.9029  140.7374  167.7760 C.1     1  UNL1       -0.0610
     29 C         140.2466  141.2580  169.0202 C.3     1  UNL1        0.1416
     30 O         139.7479  139.8500  169.1571 O.3     1  UNL1       -0.3753
     31 C         139.4860  141.4841  170.2931 C.3     1  UNL1        0.0395
     32 C         139.6518  142.9231  170.6828 C.3     1  UNL1        0.0035
     33 C         140.5150  143.5863  169.6507 C.3     1  UNL1        0.0035
     34 C         140.8825  142.5571  168.6232 C.3     1  UNL1        0.0395
     35 H         139.2060  139.7753  169.9582 H       1  UNL1        0.2114
@<TRIPOS>BOND
     1    15    16    3
     2    16     9    1
     3     9    10   ar
     4    10    11   ar
     5    11    12   ar
     6    12     7    1
     7     7     1    1
     8     1     2   ar
     9     2     3   ar
    10     3    17    1
    11    17    19    1
    12    20    19    1
    13    20    21    1
    14    21    22    1
    15    22    23    1
    16    23    24    1
    17    24    25    1
    18     3     4   ar
    19     4    27    1
    20    27    28    3
    21    28    29    1
    22    29    30    1
    23    29    31    1
    24    31    32    1
    25    32    33    1
    26    33    34    1
    27     4     5   ar
    28     5     6   ar
    29    12    13   ar
    30    13    14   ar
    31    14     9   ar
    32     6     1   ar
    33    25    20    1
    34    34    29    1
    35     7     8    1
    36    17    18    1
    37    22    26    1
    38    30    35    1
