@<TRIPOS>MOLECULE
*****
 27 30 0 0 0
SMALL
GASTEIGER

@<TRIPOS>ATOM
      1 N         138.4802  138.6372  162.8434 N.3     1  UNL1       -0.2722
      2 C         138.1291  139.9621  163.4526 C.3     1  UNL1        0.0754
      3 C         138.1360  140.1276  164.9435 C.3     1  UNL1        0.0543
      4 C         138.4938  138.9681  165.8251 C.3     1  UNL1        0.1331
      5 C         138.8449  137.6430  165.2159 C.3     1  UNL1        0.0543
      6 C         138.8380  137.4776  163.7251 C.3     1  UNL1        0.0754
      7 N         138.5007  139.1335  167.3159 N.pl3   1  UNL1       -0.2232
      8 H         137.8028  138.7045  167.8620 H       1  UNL1        0.2454
      9 C         139.5707  139.9526  167.9748 C.cat   1  UNL1        0.4199
     10 N         140.9427  140.2146  167.4280 N.2     1  UNL1       -0.0679
     11 C         141.6766  141.0774  168.4114 C.2     1  UNL1        0.1887
     12 C         143.0625  141.6511  168.4047 C.2     1  UNL1        0.0395
     13 C         143.5300  142.4961  169.5525 C.2     1  UNL1       -0.0010
     14 C         142.6115  142.7673  170.7070 C.2     1  UNL1       -0.0181
     15 C         141.2256  142.1936  170.7137 C.3     1  UNL1        0.0932
     16 C         140.7582  141.3486  169.5659 C.2     1  UNL1        0.1744
     17 N         139.4567  140.6534  169.2960 N.2     1  UNL1       -0.0718
     18 C         138.4734  138.4717  161.3526 C.3     1  UNL1        0.0768
     19 C         139.7676  138.3299  160.6078 C.3     1  UNL1        0.0437
     20 C         143.5063  140.2577  162.2065 C.ar    1  UNL1        0.0684
     21 C         143.3189  138.7740  162.3227 C.ar    1  UNL1        0.0100
     22 C         142.0727  138.1314  161.7898 C.ar    1  UNL1       -0.0035
     23 C         141.0138  138.9725  161.1407 C.ar    1  UNL1       -0.0207
     24 C         141.2012  140.4562  161.0244 C.ar    1  UNL1       -0.0035
     25 C         142.4475  141.0988  161.5573 C.ar    1  UNL1        0.0100
     26 N         145.9987  141.5430  163.2722 N.1     1  UNL1       -0.1908
     27 C         144.7525  140.9003  162.7393 C.1     1  UNL1        0.1004
@<TRIPOS>BOND
     1    26    27    3
     2    27    20    1
     3    20    21   ar
     4    21    22   ar
     5    22    23   ar
     6    23    19    1
     7    19    18    1
     8    18     1    1
     9     1     2    1
    10     2     3    1
    11     3     4    1
    12     4     7    1
    13     7     9    1
    14     9    10    2
    15    10    11    1
    16    11    12    2
    17    12    13    1
    18    13    14    2
    19    14    15    1
    20    15    16    1
    21    16    17    2
    22     4     5    1
    23     5     6    1
    24    23    24   ar
    25    24    25   ar
    26    25    20   ar
    27     6     1    1
    28    17     9    1
    29    16    11    1
    30     7     8    1
@<TRIPOS>MOLECULE
*****
 27 30 0 0 0
SMALL
GASTEIGER

@<TRIPOS>ATOM
      1 N         144.2256  141.2115  161.8457 N.3     1  UNL1       -0.2722
      2 C         145.1496  141.4637  163.0001 C.3     1  UNL1        0.0754
      3 C         145.0406  140.6318  164.2436 C.3     1  UNL1        0.0543
      4 C         144.0077  139.5477  164.3325 C.3     1  UNL1        0.1331
      5 C         143.0838  139.2956  163.1780 C.3     1  UNL1        0.0543
      6 C         143.1927  140.1275  161.9347 C.3     1  UNL1        0.0754
      7 N         143.8988  138.7158  165.5759 N.pl3   1  UNL1       -0.2232
      8 H         144.4724  137.9239  165.6901 H       1  UNL1        0.2454
      9 C         142.9158  139.0904  166.6452 C.cat   1  UNL1        0.4199
     10 N         143.1699  139.0681  168.1234 N.2     1  UNL1       -0.0679
     11 C         141.9173  139.5170  168.8159 C.2     1  UNL1        0.1887
     12 C         141.5802  139.6915  170.2670 C.2     1  UNL1        0.0395
     13 C         140.2148  140.1659  170.6679 C.2     1  UNL1       -0.0010
     14 C         139.1866  140.4657  169.6177 C.2     1  UNL1       -0.0181
     15 C         139.5238  140.2912  168.1666 C.3     1  UNL1        0.0932
     16 C         140.8891  139.8168  167.7657 C.2     1  UNL1        0.1744
     17 N         141.5062  139.5532  166.4242 N.2     1  UNL1       -0.0718
     18 C         144.3346  142.0435  160.6022 C.3     1  UNL1        0.0768
     19 C         143.4349  143.2284  160.4114 C.3     1  UNL1        0.0437
     20 C         140.4701  144.3403  163.6089 C.ar    1  UNL1        0.0684
     21 C         140.0503  143.4576  162.4711 C.ar    1  UNL1        0.0100
     22 C         141.0385  143.0869  161.4053 C.ar    1  UNL1       -0.0035
     23 C         142.4466  143.5990  161.4772 C.ar    1  UNL1       -0.0207
     24 C         142.8664  144.4817  162.6151 C.ar    1  UNL1       -0.0035
     25 C         141.8781  144.8523  163.6809 C.ar    1  UNL1        0.0100
     26 N         138.4935  145.0815  165.7405 N.1     1  UNL1       -0.1908
     27 C         139.4819  144.7109  164.6747 C.1     1  UNL1        0.1004
@<TRIPOS>BOND
     1    26    27    3
     2    27    20    1
     3    20    21   ar
     4    21    22   ar
     5    22    23   ar
     6    23    19    1
     7    19    18    1
     8    18     1    1
     9     1     2    1
    10     2     3    1
    11     3     4    1
    12     4     7    1
    13     7     9    1
    14     9    10    2
    15    10    11    1
    16    11    12    2
    17    12    13    1
    18    13    14    2
    19    14    15    1
    20    15    16    1
    21    16    17    2
    22     4     5    1
    23     5     6    1
    24    23    24   ar
    25    24    25   ar
    26    25    20   ar
    27     6     1    1
    28    17     9    1
    29    16    11    1
    30     7     8    1
@<TRIPOS>MOLECULE
*****
 27 30 0 0 0
SMALL
GASTEIGER

@<TRIPOS>ATOM
      1 N         139.9742  139.2691  161.5934 N.3     1  UNL1       -0.2722
      2 C         139.5361  138.2253  162.5775 C.3     1  UNL1        0.0754
      3 C         140.3873  137.9180  163.7738 C.3     1  UNL1        0.0543
      4 C         141.6767  138.6546  163.9860 C.3     1  UNL1        0.1331
      5 C         142.1148  139.6984  163.0018 C.3     1  UNL1        0.0543
      6 C         141.2635  140.0056  161.8056 C.3     1  UNL1        0.0754
      7 N         142.5279  138.3474  165.1822 N.pl3   1  UNL1       -0.2232
      8 H         143.2939  137.7349  165.0970 H       1  UNL1        0.2454
      9 C         142.2120  138.9734  166.5082 C.cat   1  UNL1        0.4199
     10 N         140.9538  139.7117  166.8573 N.2     1  UNL1       -0.0679
     11 C         141.0631  140.1657  168.2828 C.2     1  UNL1        0.1887
     12 C         140.1266  140.9367  169.1652 C.2     1  UNL1        0.0395
     13 C         140.5160  141.2500  170.5795 C.2     1  UNL1       -0.0010
     14 C         141.8417  140.7922  171.1114 C.2     1  UNL1       -0.0181
     15 C         142.7781  140.0212  170.2290 C.3     1  UNL1        0.0932
     16 C         142.3888  139.7079  168.8147 C.2     1  UNL1        0.1744
     17 N         143.0988  138.9711  167.7180 N.2     1  UNL1       -0.0718
     18 C         139.1230  139.5763  160.3971 C.3     1  UNL1        0.0768
     19 C         138.0965  140.6678  160.4674 C.3     1  UNL1        0.0437
     20 C         138.1108  143.5506  163.9227 C.ar    1  UNL1        0.0684
     21 C         138.7212  143.9484  162.6116 C.ar    1  UNL1        0.0100
     22 C         138.7165  142.9875  161.4598 C.ar    1  UNL1       -0.0035
     23 C         138.1013  141.6287  161.6192 C.ar    1  UNL1       -0.0207
     24 C         137.4908  141.2309  162.9304 C.ar    1  UNL1       -0.0035
     25 C         137.4956  142.1919  164.0821 C.ar    1  UNL1        0.0100
     26 N         138.1204  145.4725  166.2263 N.1     1  UNL1       -0.1908
     27 C         138.1155  144.5115  165.0745 C.1     1  UNL1        0.1004
@<TRIPOS>BOND
     1    26    27    3
     2    27    20    1
     3    20    21   ar
     4    21    22   ar
     5    22    23   ar
     6    23    19    1
     7    19    18    1
     8    18     1    1
     9     1     2    1
    10     2     3    1
    11     3     4    1
    12     4     7    1
    13     7     9    1
    14     9    10    2
    15    10    11    1
    16    11    12    2
    17    12    13    1
    18    13    14    2
    19    14    15    1
    20    15    16    1
    21    16    17    2
    22     4     5    1
    23     5     6    1
    24    23    24   ar
    25    24    25   ar
    26    25    20   ar
    27     6     1    1
    28    17     9    1
    29    16    11    1
    30     7     8    1
@<TRIPOS>MOLECULE
*****
 27 30 0 0 0
SMALL
GASTEIGER

@<TRIPOS>ATOM
      1 N         141.0879  138.6992  161.2258 N.3     1  UNL1       -0.2722
      2 C         142.3457  137.8874  161.3198 C.3     1  UNL1        0.0754
      3 C         143.0110  137.3879  160.0715 C.3     1  UNL1        0.0543
      4 C         142.4184  137.7003  158.7294 C.3     1  UNL1        0.1331
      5 C         141.1605  138.5121  158.6355 C.3     1  UNL1        0.0543
      6 C         140.4953  139.0115  159.8837 C.3     1  UNL1        0.0754
      7 N         143.0836  137.2009  157.4812 N.pl3   1  UNL1       -0.2232
      8 H         143.6769  137.7956  156.9679 H       1  UNL1        0.2454
      9 C         142.8449  135.7952  157.0151 C.cat   1  UNL1        0.4199
     10 N         141.9293  135.3789  155.9023 N.2     1  UNL1       -0.0679
     11 C         141.9984  133.8855  155.7794 C.2     1  UNL1        0.1887
     12 C         141.3125  132.9215  154.8573 C.2     1  UNL1        0.0395
     13 C         141.5849  131.4510  154.9720 C.2     1  UNL1       -0.0010
     14 C         142.5432  130.9444  156.0089 C.2     1  UNL1       -0.0181
     15 C         143.2291  131.9084  156.9309 C.3     1  UNL1        0.0932
     16 C         142.9567  133.3789  156.8162 C.2     1  UNL1        0.1744
     17 N         143.4798  134.5592  157.5799 N.2     1  UNL1       -0.0718
     18 C         140.4226  139.1986  162.4741 C.3     1  UNL1        0.0768
     19 C         140.0868  138.2417  163.5793 C.3     1  UNL1        0.0437
     20 C         139.4127  139.7755  167.7558 C.ar    1  UNL1        0.0684
     21 C         140.7458  139.9626  167.0942 C.ar    1  UNL1        0.0100
     22 C         140.9706  139.4513  165.7020 C.ar    1  UNL1       -0.0035
     23 C         139.8621  138.7530  164.9714 C.ar    1  UNL1       -0.0207
     24 C         138.5290  138.5659  165.6331 C.ar    1  UNL1       -0.0035
     25 C         138.3043  139.0772  167.0253 C.ar    1  UNL1        0.0100
     26 N         138.9633  140.7980  170.5402 N.1     1  UNL1       -0.1908
     27 C         139.1880  140.2867  169.1479 C.1     1  UNL1        0.1004
@<TRIPOS>BOND
     1    26    27    3
     2    27    20    1
     3    20    21   ar
     4    21    22   ar
     5    22    23   ar
     6    23    19    1
     7    19    18    1
     8    18     1    1
     9     1     2    1
    10     2     3    1
    11     3     4    1
    12     4     7    1
    13     7     9    1
    14     9    10    2
    15    10    11    1
    16    11    12    2
    17    12    13    1
    18    13    14    2
    19    14    15    1
    20    15    16    1
    21    16    17    2
    22     4     5    1
    23     5     6    1
    24    23    24   ar
    25    24    25   ar
    26    25    20   ar
    27     6     1    1
    28    17     9    1
    29    16    11    1
    30     7     8    1
@<TRIPOS>MOLECULE
*****
 27 30 0 0 0
SMALL
GASTEIGER

@<TRIPOS>ATOM
      1 N         138.4940  140.4341  165.4349 N.3     1  UNL1       -0.2722
      2 C         139.6276  141.2250  166.0173 C.3     1  UNL1        0.0754
      3 C         140.0055  142.5471  165.4179 C.3     1  UNL1        0.0543
      4 C         139.2497  143.0783  164.2362 C.3     1  UNL1        0.1331
      5 C         138.1160  142.2874  163.6538 C.3     1  UNL1        0.0543
      6 C         137.7381  140.9653  164.2532 C.3     1  UNL1        0.0754
      7 N         139.6276  144.4004  163.6368 N.pl3   1  UNL1       -0.2232
      8 H         139.5100  145.2282  164.1567 H       1  UNL1        0.2454
      9 C         140.1845  144.4614  162.2454 C.cat   1  UNL1        0.4199
     10 N         139.6531  145.2971  161.1188 N.2     1  UNL1       -0.0679
     11 C         140.5108  145.0495  159.9133 C.2     1  UNL1        0.1887
     12 C         140.4623  145.5967  158.5176 C.2     1  UNL1        0.0395
     13 C         141.4754  145.1551  157.5034 C.2     1  UNL1       -0.0010
     14 C         142.5369  144.1663  157.8849 C.2     1  UNL1       -0.0181
     15 C         142.5854  143.6192  159.2807 C.3     1  UNL1        0.0932
     16 C         141.5723  144.0608  160.2949 C.2     1  UNL1        0.1744
     17 N         141.3706  143.6973  161.7362 N.2     1  UNL1       -0.0718
     18 C         138.1161  139.1119  166.0343 C.3     1  UNL1        0.0768
     19 C         138.7072  137.8454  165.4900 C.3     1  UNL1        0.0437
     20 C         141.4144  137.9877  161.8983 C.ar    1  UNL1        0.0684
     21 C         141.9997  137.9934  163.2794 C.ar    1  UNL1        0.0100
     22 C         141.0974  137.9459  164.4766 C.ar    1  UNL1       -0.0035
     23 C         139.6096  137.8928  164.2928 C.ar    1  UNL1       -0.0207
     24 C         139.0242  137.8872  162.9117 C.ar    1  UNL1       -0.0035
     25 C         139.9267  137.9346  161.7145 C.ar    1  UNL1        0.0100
     26 N         143.2192  138.0826  159.5037 N.1     1  UNL1       -0.1908
     27 C         142.3168  138.0352  160.7011 C.1     1  UNL1        0.1004
@<TRIPOS>BOND
     1    26    27    3
     2    27    20    1
     3    20    21   ar
     4    21    22   ar
     5    22    23   ar
     6    23    19    1
     7    19    18    1
     8    18     1    1
     9     1     2    1
    10     2     3    1
    11     3     4    1
    12     4     7    1
    13     7     9    1
    14     9    10    2
    15    10    11    1
    16    11    12    2
    17    12    13    1
    18    13    14    2
    19    14    15    1
    20    15    16    1
    21    16    17    2
    22     4     5    1
    23     5     6    1
    24    23    24   ar
    25    24    25   ar
    26    25    20   ar
    27     6     1    1
    28    17     9    1
    29    16    11    1
    30     7     8    1
@<TRIPOS>MOLECULE
*****
 27 30 0 0 0
SMALL
GASTEIGER

@<TRIPOS>ATOM
      1 N         142.6965  138.3713  163.9196 N.3     1  UNL1       -0.2722
      2 C         141.8662  137.6805  162.8787 C.3     1  UNL1        0.0754
      3 C         142.2030  137.8370  161.4254 C.3     1  UNL1        0.0543
      4 C         143.3700  138.6843  161.0130 C.3     1  UNL1        0.1331
      5 C         144.2003  139.3751  162.0539 C.3     1  UNL1        0.0543
      6 C         143.8635  139.2186  163.5072 C.3     1  UNL1        0.0754
      7 N         143.7068  138.8408  159.5597 N.pl3   1  UNL1       -0.2232
      8 H         144.5464  139.2808  159.2936 H       1  UNL1        0.2454
      9 C         142.7645  138.3270  158.5119 C.cat   1  UNL1        0.4199
     10 N         141.4041  138.8782  158.2028 N.2     1  UNL1       -0.0679
     11 C         140.8159  138.0636  157.0891 C.2     1  UNL1        0.1887
     12 C         139.5013  138.1459  156.3713 C.2     1  UNL1        0.0395
     13 C         139.1837  137.1736  155.2742 C.2     1  UNL1       -0.0010
     14 C         140.1806  136.1190  154.8949 C.2     1  UNL1       -0.0181
     15 C         141.4951  136.0367  155.6126 C.3     1  UNL1        0.0932
     16 C         141.8128  137.0090  156.7097 C.2     1  UNL1        0.1744
     17 N         143.0170  137.1718  157.5890 N.2     1  UNL1       -0.0718
     18 C         142.3597  138.2148  165.3730 C.3     1  UNL1        0.0768
     19 C         143.1588  138.9456  166.4109 C.3     1  UNL1        0.0437
     20 C         141.2888  142.3218  168.7248 C.ar    1  UNL1        0.0684
     21 C         141.2276  142.3154  167.2261 C.ar    1  UNL1        0.0100
     22 C         141.8509  141.1901  166.4548 C.ar    1  UNL1       -0.0035
     23 C         142.5355  140.0710  167.1822 C.ar    1  UNL1       -0.0207
     24 C         142.5967  140.0774  168.6809 C.ar    1  UNL1       -0.0035
     25 C         141.9733  141.2028  169.4522 C.ar    1  UNL1        0.0100
     26 N         140.0422  144.5727  170.2674 N.1     1  UNL1       -0.1908
     27 C         140.6655  143.4472  169.4961 C.1     1  UNL1        0.1004
@<TRIPOS>BOND
     1    26    27    3
     2    27    20    1
     3    20    21   ar
     4    21    22   ar
     5    22    23   ar
     6    23    19    1
     7    19    18    1
     8    18     1    1
     9     1     2    1
    10     2     3    1
    11     3     4    1
    12     4     7    1
    13     7     9    1
    14     9    10    2
    15    10    11    1
    16    11    12    2
    17    12    13    1
    18    13    14    2
    19    14    15    1
    20    15    16    1
    21    16    17    2
    22     4     5    1
    23     5     6    1
    24    23    24   ar
    25    24    25   ar
    26    25    20   ar
    27     6     1    1
    28    17     9    1
    29    16    11    1
    30     7     8    1
@<TRIPOS>MOLECULE
*****
 27 30 0 0 0
SMALL
GASTEIGER

@<TRIPOS>ATOM
      1 N         139.3193  138.1433  162.4218 N.3     1  UNL1       -0.2722
      2 C         138.8592  138.0366  163.8455 C.3     1  UNL1        0.0754
      3 C         139.8574  138.1027  164.9633 C.3     1  UNL1        0.0543
      4 C         141.3156  138.2755  164.6574 C.3     1  UNL1        0.1331
      5 C         141.7757  138.3823  163.2336 C.3     1  UNL1        0.0543
      6 C         140.7776  138.3162  162.1159 C.3     1  UNL1        0.0754
      7 N         142.3137  138.3417  165.7751 N.pl3   1  UNL1       -0.2232
      8 H         143.0343  137.6732  165.8318 H       1  UNL1        0.2454
      9 C         142.2141  139.4263  166.8064 C.cat   1  UNL1        0.4199
     10 N         143.0556  139.5479  168.0422 N.2     1  UNL1       -0.0679
     11 C         142.6171  140.7765  168.7826 C.2     1  UNL1        0.1887
     12 C         143.0871  141.3969  170.0648 C.2     1  UNL1        0.0395
     13 C         142.4445  142.6550  170.5689 C.2     1  UNL1       -0.0010
     14 C         141.3320  143.2928  169.7907 C.2     1  UNL1       -0.0181
     15 C         140.8620  142.6724  168.5085 C.3     1  UNL1        0.0932
     16 C         141.5045  141.4142  168.0044 C.2     1  UNL1        0.1744
     17 N         141.2555  140.5797  166.7831 N.2     1  UNL1       -0.0718
     18 C         138.3212  138.0772  161.3040 C.3     1  UNL1        0.0768
     19 C         137.4195  139.2450  161.0337 C.3     1  UNL1        0.0437
     20 C         138.9321  143.4410  161.6300 C.ar    1  UNL1        0.0684
     21 C         139.2936  142.6829  160.3871 C.ar    1  UNL1        0.0100
     22 C         138.7894  141.2843  160.1884 C.ar    1  UNL1       -0.0035
     23 C         137.9237  140.6437  161.2325 C.ar    1  UNL1       -0.0207
     24 C         137.5622  141.4017  162.4753 C.ar    1  UNL1       -0.0035
     25 C         138.0665  142.8004  162.6741 C.ar    1  UNL1        0.0100
     26 N         139.9406  146.2383  162.0275 N.1     1  UNL1       -0.1908
     27 C         139.4364  144.8396  161.8288 C.1     1  UNL1        0.1004
@<TRIPOS>BOND
     1    26    27    3
     2    27    20    1
     3    20    21   ar
     4    21    22   ar
     5    22    23   ar
     6    23    19    1
     7    19    18    1
     8    18     1    1
     9     1     2    1
    10     2     3    1
    11     3     4    1
    12     4     7    1
    13     7     9    1
    14     9    10    2
    15    10    11    1
    16    11    12    2
    17    12    13    1
    18    13    14    2
    19    14    15    1
    20    15    16    1
    21    16    17    2
    22     4     5    1
    23     5     6    1
    24    23    24   ar
    25    24    25   ar
    26    25    20   ar
    27     6     1    1
    28    17     9    1
    29    16    11    1
    30     7     8    1
@<TRIPOS>MOLECULE
*****
 27 30 0 0 0
SMALL
GASTEIGER

@<TRIPOS>ATOM
      1 N         138.5661  139.0653  164.0835 N.3     1  UNL1       -0.2722
      2 C         138.3141  139.0711  162.6048 C.3     1  UNL1        0.0754
      3 C         138.0165  140.3612  161.8997 C.3     1  UNL1        0.0543
      4 C         137.9710  141.6455  162.6733 C.3     1  UNL1        0.1331
      5 C         138.2230  141.6397  164.1520 C.3     1  UNL1        0.0543
      6 C         138.5206  140.3496  164.8571 C.3     1  UNL1        0.0754
      7 N         137.6735  142.9356  161.9683 N.pl3   1  UNL1       -0.2232
      8 H         136.9129  143.4901  162.2567 H       1  UNL1        0.2454
      9 C         138.5349  143.3808  160.8238 C.cat   1  UNL1        0.4199
     10 N         138.4539  142.8798  159.4123 N.2     1  UNL1       -0.0679
     11 C         139.4974  143.5945  158.6060 C.2     1  UNL1        0.1887
     12 C         139.8804  143.5087  157.1583 C.2     1  UNL1        0.0395
     13 C         140.9894  144.3657  156.6238 C.2     1  UNL1       -0.0010
     14 C         141.7154  145.3085  157.5370 C.2     1  UNL1       -0.0181
     15 C         141.3324  145.3943  158.9847 C.3     1  UNL1        0.0932
     16 C         140.2235  144.5374  159.5192 C.2     1  UNL1        0.1744
     17 N         139.6286  144.4053  160.8899 N.2     1  UNL1       -0.0718
     18 C         138.8636  137.7752  164.7886 C.3     1  UNL1        0.0768
     19 C         140.2433  137.1896  164.7306 C.3     1  UNL1        0.0437
     20 C         143.7759  139.8367  163.8567 C.ar    1  UNL1        0.0684
     21 C         143.1866  138.9890  162.7686 C.ar    1  UNL1        0.0100
     22 C         142.0091  138.1066  163.0599 C.ar    1  UNL1       -0.0035
     23 C         141.4208  138.0720  164.4393 C.ar    1  UNL1       -0.0207
     24 C         142.0101  138.9198  165.5274 C.ar    1  UNL1       -0.0035
     25 C         143.1877  139.8021  165.2361 C.ar    1  UNL1        0.0100
     26 N         146.1310  141.6015  163.2741 N.1     1  UNL1       -0.1908
     27 C         144.9534  140.7191  163.5654 C.1     1  UNL1        0.1004
@<TRIPOS>BOND
     1    26    27    3
     2    27    20    1
     3    20    21   ar
     4    21    22   ar
     5    22    23   ar
     6    23    19    1
     7    19    18    1
     8    18     1    1
     9     1     2    1
    10     2     3    1
    11     3     4    1
    12     4     7    1
    13     7     9    1
    14     9    10    2
    15    10    11    1
    16    11    12    2
    17    12    13    1
    18    13    14    2
    19    14    15    1
    20    15    16    1
    21    16    17    2
    22     4     5    1
    23     5     6    1
    24    23    24   ar
    25    24    25   ar
    26    25    20   ar
    27     6     1    1
    28    17     9    1
    29    16    11    1
    30     7     8    1
@<TRIPOS>MOLECULE
*****
 27 30 0 0 0
SMALL
GASTEIGER

@<TRIPOS>ATOM
      1 N         142.9572  138.7345  162.8471 N.3     1  UNL1       -0.2722
      2 C         144.0905  139.3732  162.1005 C.3     1  UNL1        0.0754
      3 C         144.1211  139.3280  160.6015 C.3     1  UNL1        0.0543
      4 C         143.0183  138.6440  159.8491 C.3     1  UNL1        0.1331
      5 C         141.8849  138.0053  160.5958 C.3     1  UNL1        0.0543
      6 C         141.8544  138.0505  162.0948 C.3     1  UNL1        0.0754
      7 N         143.0489  138.5988  158.3501 N.pl3   1  UNL1       -0.2232
      8 H         143.2493  139.4147  157.8370 H       1  UNL1        0.2454
      9 C         142.7740  137.3104  157.6329 C.cat   1  UNL1        0.4199
     10 N         143.3969  135.9806  157.9391 N.2     1  UNL1       -0.0679
     11 C         142.8358  134.9739  156.9790 C.2     1  UNL1        0.1887
     12 C         143.0826  133.5043  156.8076 C.2     1  UNL1        0.0395
     13 C         142.3598  132.7423  155.7367 C.2     1  UNL1       -0.0010
     14 C         141.3902  133.4499  154.8372 C.2     1  UNL1       -0.0181
     15 C         141.1434  134.9195  155.0085 C.3     1  UNL1        0.0932
     16 C         141.8663  135.6815  156.0794 C.2     1  UNL1        0.1744
     17 N         141.8281  137.1255  156.4836 N.2     1  UNL1       -0.0718
     18 C         142.9266  138.7797  164.3462 C.3     1  UNL1        0.0768
     19 C         141.6200  138.6631  165.0735 C.3     1  UNL1        0.0437
     20 C         141.1077  140.5988  169.1035 C.ar    1  UNL1        0.0684
     21 C         139.9327  140.4656  168.1806 C.ar    1  UNL1        0.0100
     22 C         140.1035  139.8204  166.8373 C.ar    1  UNL1       -0.0035
     23 C         141.4492  139.3083  166.4168 C.ar    1  UNL1       -0.0207
     24 C         142.6242  139.4414  167.3397 C.ar    1  UNL1       -0.0035
     25 C         142.4534  140.0867  168.6831 C.ar    1  UNL1        0.0100
     26 N         140.7662  141.8892  171.7902 N.1     1  UNL1       -0.1908
     27 C         140.9370  141.2440  170.4468 C.1     1  UNL1        0.1004
@<TRIPOS>BOND
     1    26    27    3
     2    27    20    1
     3    20    21   ar
     4    21    22   ar
     5    22    23   ar
     6    23    19    1
     7    19    18    1
     8    18     1    1
     9     1     2    1
    10     2     3    1
    11     3     4    1
    12     4     7    1
    13     7     9    1
    14     9    10    2
    15    10    11    1
    16    11    12    2
    17    12    13    1
    18    13    14    2
    19    14    15    1
    20    15    16    1
    21    16    17    2
    22     4     5    1
    23     5     6    1
    24    23    24   ar
    25    24    25   ar
    26    25    20   ar
    27     6     1    1
    28    17     9    1
    29    16    11    1
    30     7     8    1
