@<TRIPOS>MOLECULE
*****
 32 35 0 0 0
SMALL
GASTEIGER

@<TRIPOS>ATOM
      1 C         139.6993  140.4288  167.8027 C.ar    1  UNL1       -0.0065
      2 C         140.5274  141.4634  167.1001 C.ar    1  UNL1       -0.0033
      3 C         140.8876  141.2814  165.6554 C.ar    1  UNL1       -0.0048
      4 C         140.4196  140.0648  164.9133 C.ar    1  UNL1       -0.0245
      5 C         139.5915  139.0302  165.6159 C.ar    1  UNL1       -0.0263
      6 C         139.2314  139.2121  167.0606 C.ar    1  UNL1       -0.0075
      7 C         139.1235  137.8135  164.8738 C.3     1  UNL1        0.0277
      8 C         139.4836  137.6315  163.4291 C.3     1  UNL1        0.0248
      9 C         140.3118  138.6662  162.7265 C.3     1  UNL1        0.0801
     10 C         140.7798  139.8828  163.4686 C.3     1  UNL1        0.0458
     11 N         140.6719  138.4842  161.2818 N.am    1  UNL1       -0.2783
     12 C         139.6367  138.6999  160.2178 C.3     1  UNL1        0.1107
     13 C         139.9969  138.5180  158.7731 C.3     1  UNL1        0.0942
     14 N         141.3922  138.1203  158.3924 N.3     1  UNL1       -0.2632
     15 C         142.4274  137.9046  159.4563 C.3     1  UNL1        0.1587
     16 C         142.0672  138.0866  160.9010 C.2     1  UNL1        0.2420
     17 O         143.1023  137.8710  161.9649 O.2     1  UNL1       -0.2734
     18 C         141.7524  137.9383  156.9477 C.3     1  UNL1        0.0773
     19 C         142.8913  137.0398  156.5661 C.3     1  UNL1        0.0437
     20 C         142.6525  135.5737  156.3574 C.ar    1  UNL1       -0.0207
     21 C         141.7162  135.1122  155.2802 C.ar    1  UNL1       -0.0034
     22 C         141.4774  133.6461  155.0715 C.ar    1  UNL1        0.0111
     23 C         142.1749  132.6415  155.9399 C.ar    1  UNL1        0.0577
     24 CL        141.9361  131.1754  155.7312 Cl      1  UNL1       -0.0822
     25 C         143.1112  133.1030  157.0172 C.ar    1  UNL1        0.0111
     26 C         143.3501  134.5691  157.2259 C.ar    1  UNL1       -0.0034
     27 C         139.3392  140.6107  169.2474 C.3     1  UNL1        0.0991
     28 N         140.2657  141.3539  170.1635 N.3     1  UNL1       -0.2690
     29 C         140.5307  143.9260  169.9108 C.3     1  UNL1        0.0188
     30 C         139.9241  142.7449  170.6087 C.3     1  UNL1        0.0724
     31 C         141.5340  140.7059  170.6344 C.3     1  UNL1        0.0724
     32 C         141.9591  139.3860  170.0625 C.3     1  UNL1        0.0188
@<TRIPOS>BOND
     1    29    30    1
     2    30    28    1
     3    28    31    1
     4    31    32    1
     5    28    27    1
     6    27     1    1
     7     1     2   ar
     8     2     3   ar
     9     3     4   ar
    10     4     5   ar
    11     5     6   ar
    12     5     7    1
    13     7     8    1
    14     8     9    1
    15     9    11    1
    16    11    12    1
    17    12    13    1
    18    13    14    1
    19    14    18    1
    20    18    19    1
    21    19    20    1
    22    20    21   ar
    23    21    22   ar
    24    22    23   ar
    25    23    24    1
    26    23    25   ar
    27    25    26   ar
    28    14    15    1
    29    15    16    1
    30    16    17    2
    31     9    10    1
    32     6     1   ar
    33    16    11   am
    34    10     4    1
    35    26    20   ar
@<TRIPOS>MOLECULE
*****
 32 35 0 0 0
SMALL
GASTEIGER

@<TRIPOS>ATOM
      1 C         139.7052  140.3660  167.7101 C.ar    1  UNL1       -0.0065
      2 C         140.5387  141.4036  167.0182 C.ar    1  UNL1       -0.0033
      3 C         140.8925  141.2378  165.5699 C.ar    1  UNL1       -0.0048
      4 C         140.4129  140.0344  164.8137 C.ar    1  UNL1       -0.0245
      5 C         139.5795  138.9969  165.5057 C.ar    1  UNL1       -0.0263
      6 C         139.2257  139.1627  166.9539 C.ar    1  UNL1       -0.0075
      7 C         139.0999  137.7935  164.7494 C.3     1  UNL1        0.0277
      8 C         139.4537  137.6277  163.3012 C.3     1  UNL1        0.0248
      9 C         140.2872  138.6653  162.6093 C.3     1  UNL1        0.0801
     10 C         140.7668  139.8686  163.3655 C.3     1  UNL1        0.0458
     11 N         140.6410  138.4995  161.1611 N.am    1  UNL1       -0.2783
     12 C         142.0296  138.0877  160.7706 C.3     1  UNL1        0.1107
     13 C         142.3834  137.9219  159.3224 C.3     1  UNL1        0.0942
     14 N         141.3487  138.1679  158.2646 N.3     1  UNL1       -0.2632
     15 C         139.9602  138.5797  158.6551 C.3     1  UNL1        0.1587
     16 C         139.6063  138.7455  160.1033 C.2     1  UNL1        0.2420
     17 O         138.2179  139.1572  160.4937 O.2     1  UNL1       -0.2734
     18 C         141.7025  138.0021  156.8164 C.3     1  UNL1        0.0773
     19 C         142.8616  137.1354  156.4220 C.3     1  UNL1        0.0437
     20 C         142.6796  135.6519  156.2950 C.ar    1  UNL1       -0.0207
     21 C         143.3376  134.7287  157.2771 C.ar    1  UNL1       -0.0034
     22 C         143.1557  133.2452  157.1500 C.ar    1  UNL1        0.0111
     23 C         142.3157  132.6849  156.0408 C.ar    1  UNL1        0.0577
     24 CL        142.1337  131.2014  155.9137 Cl      1  UNL1       -0.0822
     25 C         141.6576  133.6081  155.0586 C.ar    1  UNL1        0.0111
     26 C         141.8395  135.0916  155.1857 C.ar    1  UNL1       -0.0034
     27 C         139.3514  140.5318  169.1583 C.3     1  UNL1        0.0991
     28 N         140.3367  141.1505  170.1051 N.3     1  UNL1       -0.2690
     29 C         140.4118  143.7393  169.8984 C.3     1  UNL1        0.0188
     30 C         140.0696  142.5081  170.6842 C.3     1  UNL1        0.0724
     31 C         141.5893  140.4114  170.4727 C.3     1  UNL1        0.0724
     32 C         142.9160  140.8788  169.9520 C.3     1  UNL1        0.0188
@<TRIPOS>BOND
     1    29    30    1
     2    30    28    1
     3    28    31    1
     4    31    32    1
     5    28    27    1
     6    27     1    1
     7     1     2   ar
     8     2     3   ar
     9     3     4   ar
    10     4     5   ar
    11     5     6   ar
    12     5     7    1
    13     7     8    1
    14     8     9    1
    15     9    11    1
    16    11    12    1
    17    12    13    1
    18    13    14    1
    19    14    18    1
    20    18    19    1
    21    19    20    1
    22    20    21   ar
    23    21    22   ar
    24    22    23   ar
    25    23    24    1
    26    23    25   ar
    27    25    26   ar
    28    14    15    1
    29    15    16    1
    30    16    17    2
    31     9    10    1
    32     6     1   ar
    33    16    11   am
    34    10     4    1
    35    26    20   ar
@<TRIPOS>MOLECULE
*****
 32 35 0 0 0
SMALL
GASTEIGER

@<TRIPOS>ATOM
      1 C         139.1512  139.7854  167.6553 C.ar    1  UNL1       -0.0065
      2 C         138.2633  138.7677  167.0028 C.ar    1  UNL1       -0.0033
      3 C         138.4934  138.3785  165.5726 C.ar    1  UNL1       -0.0048
      4 C         139.6114  139.0071  164.7948 C.ar    1  UNL1       -0.0245
      5 C         140.4992  140.0248  165.4472 C.ar    1  UNL1       -0.0263
      6 C         140.2692  140.4140  166.8775 C.ar    1  UNL1       -0.0075
      7 C         141.6173  140.6535  164.6695 C.3     1  UNL1        0.0277
      8 C         141.8474  140.2643  163.2392 C.3     1  UNL1        0.0248
      9 C         140.9594  139.2465  162.5867 C.3     1  UNL1        0.0801
     10 C         139.8414  138.6179  163.3645 C.3     1  UNL1        0.0458
     11 N         141.1895  138.8573  161.1565 N.am    1  UNL1       -0.2783
     12 C         140.1743  139.2111  160.1104 C.3     1  UNL1        0.1107
     13 C         140.4043  138.8219  158.6801 C.3     1  UNL1        0.0942
     14 N         141.6496  138.0790  158.2960 N.3     1  UNL1       -0.2632
     15 C         142.6647  137.7253  159.3421 C.3     1  UNL1        0.1587
     16 C         142.4346  138.1144  160.7724 C.2     1  UNL1        0.2420
     17 O         143.4497  137.7607  161.8185 O.2     1  UNL1       -0.2734
     18 C         141.8797  137.6898  156.8657 C.3     1  UNL1        0.0773
     19 C         143.0231  136.7869  156.5088 C.3     1  UNL1        0.0437
     20 C         142.7954  135.3119  156.3587 C.ar    1  UNL1       -0.0207
     21 C         143.6211  134.3412  157.1497 C.ar    1  UNL1       -0.0034
     22 C         143.3934  132.8662  156.9996 C.ar    1  UNL1        0.0111
     23 C         142.3399  132.3619  156.0585 C.ar    1  UNL1        0.0577
     24 CL        142.1121  130.8869  155.9084 Cl      1  UNL1       -0.0822
     25 C         141.5140  133.3326  155.2674 C.ar    1  UNL1        0.0111
     26 C         141.7418  134.8076  155.4175 C.ar    1  UNL1       -0.0034
     27 C         138.9211  140.1746  169.0855 C.3     1  UNL1        0.0991
     28 N         140.0462  140.7433  169.8983 N.3     1  UNL1       -0.2690
     29 C         142.5042  139.9384  169.6523 C.3     1  UNL1        0.0188
     30 C         141.1738  139.8585  170.3407 C.3     1  UNL1        0.0724
     31 C         140.0438  142.1968  170.2689 C.3     1  UNL1        0.0724
     32 C         140.4777  143.2266  169.2683 C.3     1  UNL1        0.0188
@<TRIPOS>BOND
     1    29    30    1
     2    30    28    1
     3    28    31    1
     4    31    32    1
     5    28    27    1
     6    27     1    1
     7     1     2   ar
     8     2     3   ar
     9     3     4   ar
    10     4     5   ar
    11     5     6   ar
    12     5     7    1
    13     7     8    1
    14     8     9    1
    15     9    11    1
    16    11    12    1
    17    12    13    1
    18    13    14    1
    19    14    18    1
    20    18    19    1
    21    19    20    1
    22    20    21   ar
    23    21    22   ar
    24    22    23   ar
    25    23    24    1
    26    23    25   ar
    27    25    26   ar
    28    14    15    1
    29    15    16    1
    30    16    17    2
    31     9    10    1
    32     6     1   ar
    33    16    11   am
    34    10     4    1
    35    26    20   ar
@<TRIPOS>MOLECULE
*****
 32 35 0 0 0
SMALL
GASTEIGER

@<TRIPOS>ATOM
      1 C         142.4273  140.2943  166.3228 C.ar    1  UNL1       -0.0065
      2 C         141.6123  139.5403  165.3142 C.ar    1  UNL1       -0.0033
      3 C         141.3498  140.1383  163.9638 C.ar    1  UNL1       -0.0048
      4 C         141.9023  141.4903  163.6220 C.ar    1  UNL1       -0.0245
      5 C         142.7173  142.2442  164.6306 C.ar    1  UNL1       -0.0263
      6 C         142.9798  141.6462  165.9810 C.ar    1  UNL1       -0.0075
      7 C         143.2698  143.5963  164.2888 C.3     1  UNL1        0.0277
      8 C         143.0073  144.1943  162.9385 C.3     1  UNL1        0.0248
      9 C         142.1922  143.4402  161.9299 C.3     1  UNL1        0.0801
     10 C         141.6397  142.0883  162.2717 C.3     1  UNL1        0.0458
     11 N         141.9297  144.0383  160.5795 N.am    1  UNL1       -0.2783
     12 C         142.7108  143.5704  159.3874 C.3     1  UNL1        0.1107
     13 C         142.4482  144.1684  158.0370 C.3     1  UNL1        0.0942
     14 N         141.4047  145.2343  157.8788 N.3     1  UNL1       -0.2632
     15 C         140.6237  145.7021  159.0709 C.3     1  UNL1        0.1587
     16 C         140.8862  145.1041  160.4213 C.2     1  UNL1        0.2420
     17 O         140.1053  145.5719  161.6134 O.2     1  UNL1       -0.2734
     18 C         141.1422  145.8323  156.5284 C.3     1  UNL1        0.0773
     19 C         139.7443  146.2056  156.1324 C.3     1  UNL1        0.0437
     20 C         139.3964  147.6416  155.8736 C.ar    1  UNL1       -0.0207
     21 C         138.6744  148.4385  156.9193 C.ar    1  UNL1       -0.0034
     22 C         138.3264  149.8745  156.6606 C.ar    1  UNL1        0.0111
     23 C         138.7004  150.5135  155.3561 C.ar    1  UNL1        0.0577
     24 CL        138.3525  151.9494  155.0973 Cl      1  UNL1       -0.0822
     25 C         139.4225  149.7165  154.3103 C.ar    1  UNL1        0.0111
     26 C         139.7704  148.2806  154.5691 C.ar    1  UNL1       -0.0034
     27 C         142.6898  139.6963  167.6731 C.3     1  UNL1        0.0991
     28 N         142.0338  140.2766  168.8908 N.3     1  UNL1       -0.2690
     29 C         143.7087  142.1118  169.6504 C.3     1  UNL1        0.0188
     30 C         142.8699  140.9084  169.9640 C.3     1  UNL1        0.0724
     31 C         140.5416  140.2253  169.0353 C.3     1  UNL1        0.0724
     32 C         139.9177  140.2817  170.3981 C.3     1  UNL1        0.0188
@<TRIPOS>BOND
     1    29    30    1
     2    30    28    1
     3    28    31    1
     4    31    32    1
     5    28    27    1
     6    27     1    1
     7     1     2   ar
     8     2     3   ar
     9     3     4   ar
    10     4     5   ar
    11     5     6   ar
    12     5     7    1
    13     7     8    1
    14     8     9    1
    15     9    11    1
    16    11    12    1
    17    12    13    1
    18    13    14    1
    19    14    18    1
    20    18    19    1
    21    19    20    1
    22    20    21   ar
    23    21    22   ar
    24    22    23   ar
    25    23    24    1
    26    23    25   ar
    27    25    26   ar
    28    14    15    1
    29    15    16    1
    30    16    17    2
    31     9    10    1
    32     6     1   ar
    33    16    11   am
    34    10     4    1
    35    26    20   ar
@<TRIPOS>MOLECULE
*****
 32 35 0 0 0
SMALL
GASTEIGER

@<TRIPOS>ATOM
      1 C         141.6203  141.5180  166.8775 C.ar    1  UNL1       -0.0065
      2 C         142.9488  141.6726  166.1985 C.ar    1  UNL1       -0.0033
      3 C         143.0187  142.2155  164.8019 C.ar    1  UNL1       -0.0048
      4 C         141.7600  142.6038  164.0844 C.ar    1  UNL1       -0.0245
      5 C         140.4315  142.4492  164.7633 C.ar    1  UNL1       -0.0263
      6 C         140.3616  141.9063  166.1599 C.ar    1  UNL1       -0.0075
      7 C         139.1728  142.8376  164.0458 C.3     1  UNL1        0.0277
      8 C         139.2426  143.3805  162.6492 C.3     1  UNL1        0.0248
      9 C         140.5713  143.5351  161.9703 C.3     1  UNL1        0.0801
     10 C         141.8299  143.1468  162.6878 C.3     1  UNL1        0.0458
     11 N         140.6411  144.0781  160.5737 N.am    1  UNL1       -0.2783
     12 C         141.1912  143.2295  159.4658 C.3     1  UNL1        0.1107
     13 C         141.2611  143.7724  158.0692 C.3     1  UNL1        0.0942
     14 N         140.7809  145.1639  157.7806 N.3     1  UNL1       -0.2632
     15 C         140.2309  146.0124  158.8885 C.3     1  UNL1        0.1587
     16 C         140.1610  145.4695  160.2851 C.2     1  UNL1        0.2420
     17 O         139.6109  146.3179  161.3930 O.2     1  UNL1       -0.2734
     18 C         140.8508  145.7069  156.3841 C.3     1  UNL1        0.0773
     19 C         139.6013  146.1727  155.6971 C.3     1  UNL1        0.0437
     20 C         139.3331  147.6404  155.5424 C.ar    1  UNL1       -0.0207
     21 C         139.7490  148.3507  154.2885 C.ar    1  UNL1       -0.0034
     22 C         139.4809  149.8184  154.1337 C.ar    1  UNL1        0.0111
     23 C         138.7967  150.5758  155.2329 C.ar    1  UNL1        0.0577
     24 CL        138.5286  152.0435  155.0782 Cl      1  UNL1       -0.0822
     25 C         138.3808  149.8654  156.4870 C.ar    1  UNL1        0.0111
     26 C         138.6489  148.3977  156.6417 C.ar    1  UNL1       -0.0034
     27 C         141.5504  140.9750  168.2740 C.3     1  UNL1        0.0991
     28 N         141.2104  141.8855  169.4165 N.3     1  UNL1       -0.2690
     29 C         139.0333  140.5847  169.9808 C.3     1  UNL1        0.0188
     30 C         139.8380  141.8500  170.0210 C.3     1  UNL1        0.0724
     31 C         142.2427  142.8315  169.9546 C.3     1  UNL1        0.0724
     32 C         143.6993  142.4873  169.8560 C.3     1  UNL1        0.0188
@<TRIPOS>BOND
     1    29    30    1
     2    30    28    1
     3    28    31    1
     4    31    32    1
     5    28    27    1
     6    27     1    1
     7     1     2   ar
     8     2     3   ar
     9     3     4   ar
    10     4     5   ar
    11     5     6   ar
    12     5     7    1
    13     7     8    1
    14     8     9    1
    15     9    11    1
    16    11    12    1
    17    12    13    1
    18    13    14    1
    19    14    18    1
    20    18    19    1
    21    19    20    1
    22    20    21   ar
    23    21    22   ar
    24    22    23   ar
    25    23    24    1
    26    23    25   ar
    27    25    26   ar
    28    14    15    1
    29    15    16    1
    30    16    17    2
    31     9    10    1
    32     6     1   ar
    33    16    11   am
    34    10     4    1
    35    26    20   ar
@<TRIPOS>MOLECULE
*****
 32 35 0 0 0
SMALL
GASTEIGER

@<TRIPOS>ATOM
      1 C         140.8340  140.1076  167.9698 C.ar    1  UNL1       -0.0065
      2 C         139.7222  140.6620  167.1293 C.ar    1  UNL1       -0.0033
      3 C         139.8173  140.6138  165.6331 C.ar    1  UNL1       -0.0048
      4 C         141.0242  140.0111  164.9774 C.ar    1  UNL1       -0.0245
      5 C         142.1360  139.4567  165.8178 C.ar    1  UNL1       -0.0263
      6 C         142.0409  139.5049  167.3140 C.ar    1  UNL1       -0.0075
      7 C         143.3431  138.8540  165.1620 C.3     1  UNL1        0.0277
      8 C         143.4381  138.8057  163.6658 C.3     1  UNL1        0.0248
      9 C         142.3262  139.3602  162.8254 C.3     1  UNL1        0.0801
     10 C         141.1193  139.9629  163.4811 C.3     1  UNL1        0.0458
     11 N         142.4213  139.3120  161.3292 N.am    1  UNL1       -0.2783
     12 C         143.4937  140.0852  160.6205 C.3     1  UNL1        0.1107
     13 C         143.5888  140.0369  159.1243 C.3     1  UNL1        0.0942
     14 N         142.6115  139.2155  158.3368 N.3     1  UNL1       -0.2632
     15 C         141.5392  138.4423  159.0455 C.3     1  UNL1        0.1587
     16 C         141.4441  138.4905  160.5417 C.2     1  UNL1        0.2420
     17 O         140.3717  137.7174  161.2503 O.2     1  UNL1       -0.2734
     18 C         142.7066  139.1672  156.8406 C.3     1  UNL1        0.0773
     19 C         143.5294  138.1040  156.1753 C.3     1  UNL1        0.0437
     20 C         142.9506  136.7385  155.9505 C.ar    1  UNL1       -0.0207
     21 C         141.5663  136.5935  155.3914 C.ar    1  UNL1       -0.0034
     22 C         140.9874  135.2281  155.1667 C.ar    1  UNL1        0.0111
     23 C         141.7929  134.0077  155.5010 C.ar    1  UNL1        0.0577
     24 CL        141.2140  132.6422  155.2763 Cl      1  UNL1       -0.0822
     25 C         143.1773  134.1527  156.0601 C.ar    1  UNL1        0.0111
     26 C         143.7561  135.5181  156.2849 C.ar    1  UNL1       -0.0034
     27 C         140.7389  140.1559  169.4660 C.3     1  UNL1        0.0991
     28 N         141.4067  141.2642  170.2246 N.3     1  UNL1       -0.2690
     29 C         143.7545  142.2354  169.6817 C.3     1  UNL1        0.0188
     30 C         142.8942  141.2511  170.4173 C.3     1  UNL1        0.0724
     31 C         140.5870  142.3858  170.7905 C.3     1  UNL1        0.0724
     32 C         140.2428  143.5689  169.9351 C.3     1  UNL1        0.0188
@<TRIPOS>BOND
     1    29    30    1
     2    30    28    1
     3    28    31    1
     4    31    32    1
     5    28    27    1
     6    27     1    1
     7     1     2   ar
     8     2     3   ar
     9     3     4   ar
    10     4     5   ar
    11     5     6   ar
    12     5     7    1
    13     7     8    1
    14     8     9    1
    15     9    11    1
    16    11    12    1
    17    12    13    1
    18    13    14    1
    19    14    18    1
    20    18    19    1
    21    19    20    1
    22    20    21   ar
    23    21    22   ar
    24    22    23   ar
    25    23    24    1
    26    23    25   ar
    27    25    26   ar
    28    14    15    1
    29    15    16    1
    30    16    17    2
    31     9    10    1
    32     6     1   ar
    33    16    11   am
    34    10     4    1
    35    26    20   ar
@<TRIPOS>MOLECULE
*****
 32 35 0 0 0
SMALL
GASTEIGER

@<TRIPOS>ATOM
      1 C         142.6488  140.4991  167.5346 C.ar    1  UNL1       -0.0065
      2 C         142.9025  139.0565  167.2115 C.ar    1  UNL1       -0.0033
      3 C         142.8042  138.5769  165.7936 C.ar    1  UNL1       -0.0048
      4 C         142.4523  139.5399  164.6989 C.ar    1  UNL1       -0.0245
      5 C         142.1987  140.9826  165.0219 C.ar    1  UNL1       -0.0263
      6 C         142.2969  141.4621  166.4398 C.ar    1  UNL1       -0.0075
      7 C         141.8468  141.9457  163.9271 C.3     1  UNL1        0.0277
      8 C         141.7485  141.4662  162.5092 C.3     1  UNL1        0.0248
      9 C         142.0022  140.0234  162.1862 C.3     1  UNL1        0.0801
     10 C         142.3541  139.0604  163.2810 C.3     1  UNL1        0.0458
     11 N         141.9039  139.5439  160.7683 N.am    1  UNL1       -0.2783
     12 C         143.1090  139.5888  159.8762 C.3     1  UNL1        0.1107
     13 C         143.0108  139.1092  158.4583 C.3     1  UNL1        0.0942
     14 N         141.7074  138.5847  157.9326 N.3     1  UNL1       -0.2632
     15 C         140.5024  138.5398  158.8247 C.3     1  UNL1        0.1587
     16 C         140.6007  139.0194  160.2426 C.2     1  UNL1        0.2420
     17 O         139.3957  138.9745  161.1347 O.2     1  UNL1       -0.2734
     18 C         141.6092  138.1052  156.5147 C.3     1  UNL1        0.0773
     19 C         140.9728  136.7807  156.2133 C.3     1  UNL1        0.0437
     20 C         141.8224  135.5503  156.0933 C.ar    1  UNL1       -0.0207
     21 C         143.0549  135.4049  156.9358 C.ar    1  UNL1       -0.0034
     22 C         143.9045  134.1746  156.8157 C.ar    1  UNL1        0.0111
     23 C         143.5217  133.0897  155.8532 C.ar    1  UNL1        0.0577
     24 CL        144.3714  131.8594  155.7331 Cl      1  UNL1       -0.0822
     25 C         142.2892  133.2352  155.0106 C.ar    1  UNL1        0.0111
     26 C         141.4396  134.4655  155.1307 C.ar    1  UNL1       -0.0034
     27 C         142.7471  140.9787  168.9525 C.3     1  UNL1        0.0991
     28 N         141.5018  141.1815  169.7636 N.3     1  UNL1       -0.2690
     29 C         139.0656  140.2839  169.6663 C.3     1  UNL1        0.0188
     30 C         140.5243  140.0561  169.9313 C.3     1  UNL1        0.0724
     31 C         141.2338  142.5098  170.4071 C.3     1  UNL1        0.0724
     32 C         140.5529  143.5964  169.6289 C.3     1  UNL1        0.0188
@<TRIPOS>BOND
     1    29    30    1
     2    30    28    1
     3    28    31    1
     4    31    32    1
     5    28    27    1
     6    27     1    1
     7     1     2   ar
     8     2     3   ar
     9     3     4   ar
    10     4     5   ar
    11     5     6   ar
    12     5     7    1
    13     7     8    1
    14     8     9    1
    15     9    11    1
    16    11    12    1
    17    12    13    1
    18    13    14    1
    19    14    18    1
    20    18    19    1
    21    19    20    1
    22    20    21   ar
    23    21    22   ar
    24    22    23   ar
    25    23    24    1
    26    23    25   ar
    27    25    26   ar
    28    14    15    1
    29    15    16    1
    30    16    17    2
    31     9    10    1
    32     6     1   ar
    33    16    11   am
    34    10     4    1
    35    26    20   ar
@<TRIPOS>MOLECULE
*****
 32 35 0 0 0
SMALL
GASTEIGER

@<TRIPOS>ATOM
      1 C         142.6105  140.0002  168.3023 C.ar    1  UNL1       -0.0065
      2 C         143.3210  138.7392  167.9087 C.ar    1  UNL1       -0.0033
      3 C         143.4591  138.3772  166.4596 C.ar    1  UNL1       -0.0048
      4 C         142.8866  139.2762  165.4041 C.ar    1  UNL1       -0.0245
      5 C         142.1761  140.5372  165.7977 C.ar    1  UNL1       -0.0263
      6 C         142.0380  140.8992  167.2468 C.ar    1  UNL1       -0.0075
      7 C         141.6036  141.4362  164.7422 C.3     1  UNL1        0.0277
      8 C         141.7416  141.0742  163.2931 C.3     1  UNL1        0.0248
      9 C         142.4522  139.8132  162.8995 C.3     1  UNL1        0.0801
     10 C         143.0247  138.9142  163.9550 C.3     1  UNL1        0.0458
     11 N         142.5903  139.4512  161.4504 N.am    1  UNL1       -0.2783
     12 C         143.5806  140.1755  160.5875 C.3     1  UNL1        0.1107
     13 C         143.7187  139.8135  159.1384 C.3     1  UNL1        0.0942
     14 N         142.8664  138.7271  158.5522 N.3     1  UNL1       -0.2632
     15 C         141.8761  138.0029  159.4152 C.3     1  UNL1        0.1587
     16 C         141.7380  138.3649  160.8643 C.2     1  UNL1        0.2420
     17 O         140.7477  137.6406  161.7272 O.2     1  UNL1       -0.2734
     18 C         143.0044  138.3651  157.1031 C.3     1  UNL1        0.0773
     19 C         142.0227  137.4254  156.4680 C.3     1  UNL1        0.0437
     20 C         142.4479  136.0363  156.0947 C.ar    1  UNL1       -0.0207
     21 C         142.0239  135.4497  154.7809 C.ar    1  UNL1       -0.0034
     22 C         142.4491  134.0605  154.4075 C.ar    1  UNL1        0.0111
     23 C         143.2985  133.2580  155.3480 C.ar    1  UNL1        0.0577
     24 CL        143.7237  131.8688  154.9746 Cl      1  UNL1       -0.0822
     25 C         143.7226  133.8445  156.6618 C.ar    1  UNL1        0.0111
     26 C         143.2973  135.2337  157.0352 C.ar    1  UNL1       -0.0034
     27 C         142.4725  140.3622  169.7514 C.3     1  UNL1        0.0991
     28 N         141.2477  141.0832  170.2309 N.3     1  UNL1       -0.2690
     29 C         140.4559  143.4742  169.5937 C.3     1  UNL1        0.0188
     30 C         141.2882  142.5665  170.4502 C.3     1  UNL1        0.0724
     31 C         139.9823  140.3208  170.4913 C.3     1  UNL1        0.0724
     32 C         138.9203  140.2470  169.4346 C.3     1  UNL1        0.0188
@<TRIPOS>BOND
     1    29    30    1
     2    30    28    1
     3    28    31    1
     4    31    32    1
     5    28    27    1
     6    27     1    1
     7     1     2   ar
     8     2     3   ar
     9     3     4   ar
    10     4     5   ar
    11     5     6   ar
    12     5     7    1
    13     7     8    1
    14     8     9    1
    15     9    11    1
    16    11    12    1
    17    12    13    1
    18    13    14    1
    19    14    18    1
    20    18    19    1
    21    19    20    1
    22    20    21   ar
    23    21    22   ar
    24    22    23   ar
    25    23    24    1
    26    23    25   ar
    27    25    26   ar
    28    14    15    1
    29    15    16    1
    30    16    17    2
    31     9    10    1
    32     6     1   ar
    33    16    11   am
    34    10     4    1
    35    26    20   ar
@<TRIPOS>MOLECULE
*****
 32 35 0 0 0
SMALL
GASTEIGER

@<TRIPOS>ATOM
      1 C         140.9149  142.2178  166.1770 C.ar    1  UNL1       -0.0065
      2 C         139.7677  142.2739  165.2123 C.ar    1  UNL1       -0.0033
      3 C         139.9368  141.7552  163.8150 C.ar    1  UNL1       -0.0048
      4 C         141.2530  141.1803  163.3825 C.ar    1  UNL1       -0.0245
      5 C         142.4001  141.1242  164.3472 C.ar    1  UNL1       -0.0263
      6 C         142.2311  141.6429  165.7445 C.ar    1  UNL1       -0.0075
      7 C         143.7164  140.5494  163.9147 C.3     1  UNL1        0.0277
      8 C         143.8854  140.0306  162.5174 C.3     1  UNL1        0.0248
      9 C         142.7382  140.0868  161.5527 C.3     1  UNL1        0.0801
     10 C         141.4220  140.6616  161.9852 C.3     1  UNL1        0.0458
     11 N         142.9072  139.5680  160.1554 N.am    1  UNL1       -0.2783
     12 C         142.5062  138.1610  159.8241 C.3     1  UNL1        0.1107
     13 C         142.6752  137.6423  158.4268 C.3     1  UNL1        0.0942
     14 N         143.2452  138.5306  157.3609 N.3     1  UNL1       -0.2632
     15 C         143.6461  139.9375  157.6922 C.3     1  UNL1        0.1587
     16 C         143.4771  140.4562  159.0895 C.2     1  UNL1        0.2420
     17 O         143.8779  141.8632  159.4208 O.2     1  UNL1       -0.2734
     18 C         143.4142  138.0119  155.9636 C.3     1  UNL1        0.0773
     19 C         144.1955  136.7548  155.7196 C.3     1  UNL1        0.0437
     20 C         143.4815  135.4428  155.5822 C.ar    1  UNL1       -0.0207
     21 C         142.7061  135.1379  154.3350 C.ar    1  UNL1       -0.0034
     22 C         141.9921  133.8259  154.1976 C.ar    1  UNL1        0.0111
     23 C         142.0536  132.8188  155.3075 C.ar    1  UNL1        0.0577
     24 CL        141.3396  131.5068  155.1701 Cl      1  UNL1       -0.0822
     25 C         142.8290  133.1236  156.5548 C.ar    1  UNL1        0.0111
     26 C         143.5430  134.4356  156.6922 C.ar    1  UNL1       -0.0034
     27 C         140.7459  142.7365  167.5743 C.3     1  UNL1        0.0991
     28 N         141.3329  141.9823  168.7304 N.3     1  UNL1       -0.2690
     29 C         143.7378  142.2224  169.6839 C.3     1  UNL1        0.0188
     30 C         142.3032  142.6594  169.6525 C.3     1  UNL1        0.0724
     31 C         140.9497  140.5511  168.9645 C.3     1  UNL1        0.0724
     32 C         139.5023  140.1640  169.0343 C.3     1  UNL1        0.0188
@<TRIPOS>BOND
     1    29    30    1
     2    30    28    1
     3    28    31    1
     4    31    32    1
     5    28    27    1
     6    27     1    1
     7     1     2   ar
     8     2     3   ar
     9     3     4   ar
    10     4     5   ar
    11     5     6   ar
    12     5     7    1
    13     7     8    1
    14     8     9    1
    15     9    11    1
    16    11    12    1
    17    12    13    1
    18    13    14    1
    19    14    18    1
    20    18    19    1
    21    19    20    1
    22    20    21   ar
    23    21    22   ar
    24    22    23   ar
    25    23    24    1
    26    23    25   ar
    27    25    26   ar
    28    14    15    1
    29    15    16    1
    30    16    17    2
    31     9    10    1
    32     6     1   ar
    33    16    11   am
    34    10     4    1
    35    26    20   ar
