@<TRIPOS>MOLECULE
*****
 36 39 0 0 0
SMALL
GASTEIGER

@<TRIPOS>ATOM
      1 C         138.6366  139.4091  163.6230 C.ar    1  UNL1        0.2266
      2 C         139.4442  138.9846  164.8136 C.ar    1  UNL1        0.0617
      3 C         139.9993  140.0166  165.7499 C.ar    1  UNL1        0.0805
      4 C         139.7467  141.4732  165.4956 C.ar    1  UNL1        0.0590
      5 C         140.1625  142.7085  166.2381 C.ar    1  UNL1        0.1038
      6 N         139.6118  143.8965  165.5064 N.ar    1  UNL1       -0.1679
      7 N         138.8558  143.3954  164.3116 N.ar    1  UNL1       -0.2319
      8 C         138.1417  144.2431  163.3010 C.3     1  UNL1        0.1554
      9 C         138.9392  141.8977  164.3050 C.ar    1  UNL1        0.1639
     10 N         138.3841  140.8657  163.3687 N.ar    1  UNL1       -0.1928
     11 C         140.9845  142.7488  167.4922 C.ar    1  UNL1        0.0194
     12 C         140.3637  143.1975  168.7818 C.ar    1  UNL1        0.0016
     13 C         141.1858  143.2377  170.0358 C.ar    1  UNL1        0.0000
     14 C         142.6286  142.8292  170.0002 C.ar    1  UNL1        0.0000
     15 C         143.2495  142.3805  168.7105 C.ar    1  UNL1        0.0000
     16 C         142.4274  142.3403  167.4565 C.ar    1  UNL1        0.0016
     17 C         140.8069  139.5922  166.9406 C.3     1  UNL1        0.4189
     18 F         141.6145  139.1677  168.1312 F       1  UNL1       -0.1659
     19 F         142.0147  139.4350  166.0652 F       1  UNL1       -0.1659
     20 F         139.5990  139.7493  167.8160 F       1  UNL1       -0.1659
     21 O         138.0815  138.3770  162.6866 O.3     1  UNL1       -0.4501
     22 C         138.8482  137.9905  161.4566 C.3     1  UNL1        0.2910
     23 N         141.3457  137.9024  162.1671 N.am    1  UNL1       -0.2992
     24 C         140.2656  138.4491  161.2814 C.2     1  UNL1        0.2673
     25 O         140.6030  139.4543  160.2204 O.2     1  UNL1       -0.2711
     26 H         141.1243  137.2426  162.8635 H       1  UNL1        0.1498
     27 C         142.7631  138.3609  161.9919 C.3     1  UNL1        0.0942
     28 C         143.6763  137.6320  161.0512 C.3     1  UNL1        0.0262
     29 C         144.2757  141.9233  164.2877 C.ar    1  UNL1        0.1387
     30 C         145.1404  140.7072  164.1351 C.ar    1  UNL1        0.0366
     31 C         144.6362  139.5197  163.3698 C.ar    1  UNL1        0.0004
     32 C         143.2673  139.5484  162.7571 C.ar    1  UNL1       -0.0043
     33 C         142.4026  140.7645  162.9098 C.ar    1  UNL1        0.0004
     34 C         142.9068  141.9520  163.6751 C.ar    1  UNL1        0.0366
     35 C         144.1417  144.4544  164.8588 C.3     1  UNL1        0.2525
     36 O         144.7799  143.1108  165.0530 O.3     1  UNL1       -0.4714
@<TRIPOS>BOND
     1    35    36    1
     2    36    29    1
     3    29    30   ar
     4    30    31   ar
     5    31    32   ar
     6    32    27    1
     7    27    28    1
     8    27    23    1
     9    23    24   am
    10    24    25    2
    11    24    22    1
    12    22    21    1
    13    21     1    1
    14     1     2   ar
    15     2     3   ar
    16     3    17    1
    17    17    18    1
    18    17    19    1
    19    17    20    1
    20     3     4   ar
    21     4     5   ar
    22     5    11    1
    23    11    12   ar
    24    12    13   ar
    25    13    14   ar
    26    14    15   ar
    27    15    16   ar
    28     5     6   ar
    29     6     7   ar
    30     7     8    1
    31     7     9   ar
    32     9    10   ar
    33    32    33   ar
    34    33    34   ar
    35    34    29   ar
    36    10     1   ar
    37     9     4   ar
    38    16    11   ar
    39    23    26    1
@<TRIPOS>MOLECULE
*****
 36 39 0 0 0
SMALL
GASTEIGER

@<TRIPOS>ATOM
      1 C         143.7519  143.2325  163.4056 C.ar    1  UNL1        0.2266
      2 C         143.9938  142.4455  164.6594 C.ar    1  UNL1        0.0617
      3 C         142.9094  142.3223  165.6884 C.ar    1  UNL1        0.0805
      4 C         141.5832  142.9861  165.4636 C.ar    1  UNL1        0.0590
      5 C         140.3342  143.0397  166.2927 C.ar    1  UNL1        0.1038
      6 N         139.3206  143.8599  165.5513 N.ar    1  UNL1       -0.1679
      7 N         139.9430  144.3131  164.2640 N.ar    1  UNL1       -0.2319
      8 C         139.2830  145.1581  163.2150 C.3     1  UNL1        0.1554
      9 C         141.3414  143.7731  164.2098 C.ar    1  UNL1        0.1639
     10 N         142.4257  143.8963  163.1808 N.ar    1  UNL1       -0.1928
     11 C         140.1342  142.3877  167.6287 C.ar    1  UNL1        0.0194
     12 C         140.3089  143.1860  168.8866 C.ar    1  UNL1        0.0016
     13 C         140.1088  142.5338  170.2225 C.ar    1  UNL1        0.0000
     14 C         139.7340  141.0835  170.3005 C.ar    1  UNL1        0.0000
     15 C         139.5593  140.2852  169.0426 C.ar    1  UNL1        0.0000
     16 C         139.7594  140.9374  167.7068 C.ar    1  UNL1        0.0016
     17 C         143.1512  141.5353  166.9423 C.3     1  UNL1        0.4189
     18 F         143.3930  140.7483  168.1962 F       1  UNL1       -0.1659
     19 F         143.6166  142.7817  167.6349 F       1  UNL1       -0.1659
     20 F         142.6858  140.2888  166.2498 F       1  UNL1       -0.1659
     21 O         144.8364  143.3557  162.3765 O.3     1  UNL1       -0.4501
     22 C         145.0873  142.2335  161.4134 C.3     1  UNL1        0.2910
     23 N         144.1500  139.9528  162.2319 N.am    1  UNL1       -0.2992
     24 C         144.0937  141.1168  161.2875 C.2     1  UNL1        0.2673
     25 O         143.0438  141.1642  160.2172 O.2     1  UNL1       -0.2711
     26 H         144.8391  139.9217  162.9343 H       1  UNL1        0.1498
     27 C         143.1565  138.8362  162.1059 C.3     1  UNL1        0.0942
     28 C         143.4166  137.7043  161.1566 C.3     1  UNL1        0.0262
     29 C         139.3954  138.8817  164.5762 C.ar    1  UNL1        0.1387
     30 C         140.1575  137.6027  164.3939 C.ar    1  UNL1        0.0366
     31 C         141.4112  137.5875  163.5705 C.ar    1  UNL1        0.0004
     32 C         141.9028  138.8514  162.9294 C.ar    1  UNL1       -0.0043
     33 C         141.1406  140.1304  163.1117 C.ar    1  UNL1        0.0004
     34 C         139.8869  140.1456  163.9351 C.ar    1  UNL1        0.0366
     35 C         137.9645  137.9090  166.5144 C.3     1  UNL1        0.2525
     36 O         138.1417  138.8969  165.3996 O.3     1  UNL1       -0.4714
@<TRIPOS>BOND
     1    35    36    1
     2    36    29    1
     3    29    30   ar
     4    30    31   ar
     5    31    32   ar
     6    32    27    1
     7    27    28    1
     8    27    23    1
     9    23    24   am
    10    24    25    2
    11    24    22    1
    12    22    21    1
    13    21     1    1
    14     1     2   ar
    15     2     3   ar
    16     3    17    1
    17    17    18    1
    18    17    19    1
    19    17    20    1
    20     3     4   ar
    21     4     5   ar
    22     5    11    1
    23    11    12   ar
    24    12    13   ar
    25    13    14   ar
    26    14    15   ar
    27    15    16   ar
    28     5     6   ar
    29     6     7   ar
    30     7     8    1
    31     7     9   ar
    32     9    10   ar
    33    32    33   ar
    34    33    34   ar
    35    34    29   ar
    36    10     1   ar
    37     9     4   ar
    38    16    11   ar
    39    23    26    1
@<TRIPOS>MOLECULE
*****
 36 39 0 0 0
SMALL
GASTEIGER

@<TRIPOS>ATOM
      1 C         143.5732  141.4445  163.4198 C.ar    1  UNL1        0.2266
      2 C         143.6807  140.7993  164.7696 C.ar    1  UNL1        0.0617
      3 C         142.7033  141.1544  165.8506 C.ar    1  UNL1        0.0805
      4 C         141.6184  142.1548  165.5817 C.ar    1  UNL1        0.0590
      5 C         140.5192  142.6997  166.4449 C.ar    1  UNL1        0.1038
      6 N         139.7324  143.6817  165.6285 N.ar    1  UNL1       -0.1679
      7 N         140.3453  143.7437  164.2608 N.ar    1  UNL1       -0.2319
      8 C         139.8751  144.5992  163.1219 C.3     1  UNL1        0.1554
      9 C         141.5109  142.8000  164.2319 C.ar    1  UNL1        0.1639
     10 N         142.4883  142.4449  163.1509 N.ar    1  UNL1       -0.1928
     11 C         140.2536  142.3278  167.8736 C.ar    1  UNL1        0.0194
     12 C         139.7605  140.9520  168.2113 C.ar    1  UNL1        0.0016
     13 C         139.4949  140.5803  169.6399 C.ar    1  UNL1        0.0000
     14 C         139.7223  141.5842  170.7309 C.ar    1  UNL1        0.0000
     15 C         140.2153  142.9601  170.3933 C.ar    1  UNL1        0.0000
     16 C         140.4809  143.3318  168.9646 C.ar    1  UNL1        0.0016
     17 C         142.8108  140.5092  167.2005 C.3     1  UNL1        0.4189
     18 F         142.9183  139.8639  168.5503 F       1  UNL1       -0.1659
     19 F         142.2236  139.2463  166.6435 F       1  UNL1       -0.1659
     20 F         143.3980  141.7721  167.7574 F       1  UNL1       -0.1659
     21 O         144.5506  141.0894  162.3387 O.3     1  UNL1       -0.4501
     22 C         144.1888  140.0605  161.3090 C.3     1  UNL1        0.2910
     23 N         141.5962  139.8931  161.3314 N.am    1  UNL1       -0.2992
     24 C         142.9411  139.2437  161.4709 C.2     1  UNL1        0.2673
     25 O         143.0384  137.7775  161.7723 O.2     1  UNL1       -0.2711
     26 H         141.5324  140.8554  161.1336 H       1  UNL1        0.1498
     27 C         140.3486  139.0763  161.4933 C.3     1  UNL1        0.0942
     28 C         139.7985  138.3082  160.3282 C.3     1  UNL1        0.0262
     29 C         138.2558  138.9302  165.4744 C.ar    1  UNL1        0.1387
     30 C         138.3509  140.2257  164.7242 C.ar    1  UNL1        0.0366
     31 C         139.0485  140.2744  163.3972 C.ar    1  UNL1        0.0004
     32 C         139.6510  139.0276  162.8204 C.ar    1  UNL1       -0.0043
     33 C         139.5559  137.7322  163.5706 C.ar    1  UNL1        0.0004
     34 C         138.8583  137.6835  164.8976 C.ar    1  UNL1        0.0366
     35 C         137.1053  137.5662  167.3628 C.3     1  UNL1        0.2525
     36 O         137.5582  138.8815  166.8014 O.3     1  UNL1       -0.4714
@<TRIPOS>BOND
     1    35    36    1
     2    36    29    1
     3    29    30   ar
     4    30    31   ar
     5    31    32   ar
     6    32    27    1
     7    27    28    1
     8    27    23    1
     9    23    24   am
    10    24    25    2
    11    24    22    1
    12    22    21    1
    13    21     1    1
    14     1     2   ar
    15     2     3   ar
    16     3    17    1
    17    17    18    1
    18    17    19    1
    19    17    20    1
    20     3     4   ar
    21     4     5   ar
    22     5    11    1
    23    11    12   ar
    24    12    13   ar
    25    13    14   ar
    26    14    15   ar
    27    15    16   ar
    28     5     6   ar
    29     6     7   ar
    30     7     8    1
    31     7     9   ar
    32     9    10   ar
    33    32    33   ar
    34    33    34   ar
    35    34    29   ar
    36    10     1   ar
    37     9     4   ar
    38    16    11   ar
    39    23    26    1
@<TRIPOS>MOLECULE
*****
 36 39 0 0 0
SMALL
GASTEIGER

@<TRIPOS>ATOM
      1 C         143.5959  139.0088  162.9477 C.ar    1  UNL1        0.2266
      2 C         143.0464  138.6447  164.2950 C.ar    1  UNL1        0.0617
      3 C         142.8042  139.7130  165.3198 C.ar    1  UNL1        0.0805
      4 C         143.1114  141.1453  164.9971 C.ar    1  UNL1        0.0590
      5 C         142.9772  142.4059  165.7990 C.ar    1  UNL1        0.1038
      6 N         143.4438  143.5490  164.9472 N.ar    1  UNL1       -0.1679
      7 N         143.8663  142.9949  163.6188 N.ar    1  UNL1       -0.2319
      8 C         144.4005  143.7872  162.4626 C.3     1  UNL1        0.1554
      9 C         143.6608  141.5093  163.6497 C.ar    1  UNL1        0.1639
     10 N         143.9031  140.4411  162.6250 N.ar    1  UNL1       -0.1928
     11 C         142.4662  142.5058  167.2058 C.ar    1  UNL1        0.0194
     12 C         143.4134  142.3606  168.3598 C.ar    1  UNL1        0.0016
     13 C         142.9023  142.4605  169.7665 C.ar    1  UNL1        0.0000
     14 C         141.4442  142.7055  170.0192 C.ar    1  UNL1        0.0000
     15 C         140.4970  142.8506  168.8651 C.ar    1  UNL1        0.0000
     16 C         141.0081  142.7507  167.4584 C.ar    1  UNL1        0.0016
     17 C         142.2547  139.3490  166.6672 C.3     1  UNL1        0.4189
     18 F         141.7052  138.9850  168.0146 F       1  UNL1       -0.1659
     19 F         140.8805  139.7430  166.2132 F       1  UNL1       -0.1659
     20 F         143.6289  138.9549  167.1212 F       1  UNL1       -0.1659
     21 O         143.8382  137.9405  161.9229 O.3     1  UNL1       -0.4501
     22 C         142.8831  137.7679  160.7792 C.3     1  UNL1        0.2910
     23 N         141.0871  139.5608  160.2223 N.am    1  UNL1       -0.2992
     24 C         141.4767  138.2770  160.8931 C.2     1  UNL1        0.2673
     25 O         140.4599  137.5022  161.6778 O.2     1  UNL1       -0.2711
     26 H         141.7545  140.0694  159.7073 H       1  UNL1        0.1498
     27 C         139.6808  140.0698  160.3363 C.3     1  UNL1        0.0942
     28 C         138.6566  139.6795  159.3121 C.3     1  UNL1        0.0262
     29 C         138.5340  142.7677  163.7504 C.ar    1  UNL1        0.1387
     30 C         137.7530  142.8047  162.4703 C.ar    1  UNL1        0.0366
     31 C         138.1352  141.9054  161.3322 C.ar    1  UNL1        0.0004
     32 C         139.2985  140.9691  161.4743 C.ar    1  UNL1       -0.0043
     33 C         140.0795  140.9321  162.7544 C.ar    1  UNL1        0.0004
     34 C         139.6972  141.8313  163.8925 C.ar    1  UNL1        0.0366
     35 C         138.9513  144.9052  165.1671 C.3     1  UNL1        0.2525
     36 O         138.1518  143.6669  164.8885 O.3     1  UNL1       -0.4714
@<TRIPOS>BOND
     1    35    36    1
     2    36    29    1
     3    29    30   ar
     4    30    31   ar
     5    31    32   ar
     6    32    27    1
     7    27    28    1
     8    27    23    1
     9    23    24   am
    10    24    25    2
    11    24    22    1
    12    22    21    1
    13    21     1    1
    14     1     2   ar
    15     2     3   ar
    16     3    17    1
    17    17    18    1
    18    17    19    1
    19    17    20    1
    20     3     4   ar
    21     4     5   ar
    22     5    11    1
    23    11    12   ar
    24    12    13   ar
    25    13    14   ar
    26    14    15   ar
    27    15    16   ar
    28     5     6   ar
    29     6     7   ar
    30     7     8    1
    31     7     9   ar
    32     9    10   ar
    33    32    33   ar
    34    33    34   ar
    35    34    29   ar
    36    10     1   ar
    37     9     4   ar
    38    16    11   ar
    39    23    26    1
@<TRIPOS>MOLECULE
*****
 36 39 0 0 0
SMALL
GASTEIGER

@<TRIPOS>ATOM
      1 C         142.6538  138.5498  163.1667 C.ar    1  UNL1        0.2266
      2 C         143.1967  138.9919  164.4932 C.ar    1  UNL1        0.0617
      3 C         142.2927  139.6536  165.4906 C.ar    1  UNL1        0.0805
      4 C         140.8459  139.8732  165.1615 C.ar    1  UNL1        0.0590
      5 C         139.7228  140.4939  165.9384 C.ar    1  UNL1        0.1038
      6 N         138.4858  140.4353  165.0920 N.ar    1  UNL1       -0.1679
      7 N         138.8444  139.7785  163.7920 N.ar    1  UNL1       -0.2319
      8 C         137.9087  139.5152  162.6496 C.3     1  UNL1        0.1554
      9 C         140.3030  139.4311  163.8349 C.ar    1  UNL1        0.1639
     10 N         141.2070  138.7694  162.8375 N.ar    1  UNL1       -0.1928
     11 C         139.8197  141.0716  167.3193 C.ar    1  UNL1        0.0194
     12 C         139.4270  140.2447  168.5076 C.ar    1  UNL1        0.0016
     13 C         139.5239  140.8225  169.8884 C.ar    1  UNL1        0.0000
     14 C         140.0136  142.2271  170.0810 C.ar    1  UNL1        0.0000
     15 C         140.4063  143.0541  168.8927 C.ar    1  UNL1        0.0000
     16 C         140.3094  142.4763  167.5119 C.ar    1  UNL1        0.0016
     17 C         142.8356  140.0958  166.8172 C.3     1  UNL1        0.4189
     18 F         143.3784  140.5379  168.1438 F       1  UNL1       -0.1659
     19 F         142.4688  138.7676  167.4100 F       1  UNL1       -0.1659
     20 F         143.2025  141.4239  166.2245 F       1  UNL1       -0.1659
     21 O         143.5578  137.8880  162.1692 O.3     1  UNL1       -0.4501
     22 C         144.2268  138.7061  161.1048 C.3     1  UNL1        0.2910
     23 N         142.9510  140.8230  160.3038 N.am    1  UNL1       -0.2992
     24 C         144.0637  140.1972  161.0914 C.2     1  UNL1        0.2673
     25 O         145.0133  141.0625  161.8658 O.2     1  UNL1       -0.2711
     26 H         142.3278  140.2551  159.7956 H       1  UNL1        0.1498
     27 C         142.7880  142.3140  160.2905 C.3     1  UNL1        0.0942
     28 C         143.3910  143.1246  159.1818 C.3     1  UNL1        0.0262
     29 C         140.4897  144.3555  163.5769 C.ar    1  UNL1        0.1387
     30 C         139.9480  143.1066  162.9469 C.ar    1  UNL1        0.0366
     31 C         140.7141  142.4261  161.8515 C.ar    1  UNL1        0.0004
     32 C         142.0219  142.9945  161.3860 C.ar    1  UNL1       -0.0043
     33 C         142.5635  144.2434  162.0160 C.ar    1  UNL1        0.0004
     34 C         141.7975  144.9239  163.1114 C.ar    1  UNL1        0.0366
     35 C         138.3525  144.5520  165.0411 C.3     1  UNL1        0.2525
     36 O         139.7236  145.0360  164.6724 O.3     1  UNL1       -0.4714
@<TRIPOS>BOND
     1    35    36    1
     2    36    29    1
     3    29    30   ar
     4    30    31   ar
     5    31    32   ar
     6    32    27    1
     7    27    28    1
     8    27    23    1
     9    23    24   am
    10    24    25    2
    11    24    22    1
    12    22    21    1
    13    21     1    1
    14     1     2   ar
    15     2     3   ar
    16     3    17    1
    17    17    18    1
    18    17    19    1
    19    17    20    1
    20     3     4   ar
    21     4     5   ar
    22     5    11    1
    23    11    12   ar
    24    12    13   ar
    25    13    14   ar
    26    14    15   ar
    27    15    16   ar
    28     5     6   ar
    29     6     7   ar
    30     7     8    1
    31     7     9   ar
    32     9    10   ar
    33    32    33   ar
    34    33    34   ar
    35    34    29   ar
    36    10     1   ar
    37     9     4   ar
    38    16    11   ar
    39    23    26    1
@<TRIPOS>MOLECULE
*****
 36 39 0 0 0
SMALL
GASTEIGER

@<TRIPOS>ATOM
      1 C         142.3344  142.0882  165.2408 C.ar    1  UNL1        0.2266
      2 C         142.7519  141.8714  163.8165 C.ar    1  UNL1        0.0617
      3 C         142.0009  142.5418  162.7045 C.ar    1  UNL1        0.0805
      4 C         140.8324  143.4290  163.0168 C.ar    1  UNL1        0.0590
      5 C         139.9075  144.2173  162.1375 C.ar    1  UNL1        0.1038
      6 N         138.9184  144.9212  163.0184 N.ar    1  UNL1       -0.1679
      7 N         139.2320  144.5680  164.4421 N.ar    1  UNL1       -0.2319
      8 C         138.4925  145.0521  165.6541 C.3     1  UNL1        0.1554
      9 C         140.4150  143.6458  164.4411 C.ar    1  UNL1        0.1639
     10 N         141.1660  142.9754  165.5531 N.ar    1  UNL1       -0.1928
     11 C         139.9621  144.2890  160.6402 C.ar    1  UNL1        0.0194
     12 C         140.7124  145.4012  159.9695 C.ar    1  UNL1        0.0016
     13 C         140.7670  145.4728  158.4722 C.ar    1  UNL1        0.0000
     14 C         140.0712  144.4323  157.6457 C.ar    1  UNL1        0.0000
     15 C         139.3209  143.3200  158.3164 C.ar    1  UNL1        0.0000
     16 C         139.2663  143.2484  159.8137 C.ar    1  UNL1        0.0016
     17 C         142.4184  142.3250  161.2801 C.3     1  UNL1        0.4189
     18 F         142.8358  142.1083  159.8558 F       1  UNL1       -0.1659
     19 F         143.3258  143.5163  161.3648 F       1  UNL1       -0.1659
     20 F         141.5110  141.1336  161.1954 F       1  UNL1       -0.1659
     21 O         143.0855  141.4177  166.3528 O.3     1  UNL1       -0.4501
     22 C         142.5439  140.1649  166.9749 C.3     1  UNL1        0.2910
     23 N         139.9769  140.0421  166.5936 N.am    1  UNL1       -0.2992
     24 C         141.3512  139.4833  166.3724 C.2     1  UNL1        0.2673
     25 O         141.5329  138.2429  165.5488 O.2     1  UNL1       -0.2711
     26 H         139.8576  140.8562  167.1342 H       1  UNL1        0.1498
     27 C         138.7842  139.3605  165.9911 C.3     1  UNL1        0.0942
     28 C         137.8648  138.5524  166.8581 C.3     1  UNL1        0.0262
     29 C         137.9645  139.7400  161.5827 C.ar    1  UNL1        0.1387
     30 C         137.8176  140.9343  162.4784 C.ar    1  UNL1        0.0366
     31 C         138.0909  140.8078  163.9479 C.ar    1  UNL1        0.0004
     32 C         138.5110  139.4870  164.5216 C.ar    1  UNL1       -0.0043
     33 C         138.6579  138.2928  163.6259 C.ar    1  UNL1        0.0004
     34 C         138.3846  138.4193  162.1565 C.ar    1  UNL1        0.0366
     35 C         138.7998  139.6604  159.1238 C.3     1  UNL1        0.2525
     36 O         137.6913  139.8665  160.1132 O.3     1  UNL1       -0.4714
@<TRIPOS>BOND
     1    35    36    1
     2    36    29    1
     3    29    30   ar
     4    30    31   ar
     5    31    32   ar
     6    32    27    1
     7    27    28    1
     8    27    23    1
     9    23    24   am
    10    24    25    2
    11    24    22    1
    12    22    21    1
    13    21     1    1
    14     1     2   ar
    15     2     3   ar
    16     3    17    1
    17    17    18    1
    18    17    19    1
    19    17    20    1
    20     3     4   ar
    21     4     5   ar
    22     5    11    1
    23    11    12   ar
    24    12    13   ar
    25    13    14   ar
    26    14    15   ar
    27    15    16   ar
    28     5     6   ar
    29     6     7   ar
    30     7     8    1
    31     7     9   ar
    32     9    10   ar
    33    32    33   ar
    34    33    34   ar
    35    34    29   ar
    36    10     1   ar
    37     9     4   ar
    38    16    11   ar
    39    23    26    1
@<TRIPOS>MOLECULE
*****
 36 39 0 0 0
SMALL
GASTEIGER

@<TRIPOS>ATOM
      1 C         143.7722  142.7252  162.2468 C.ar    1  UNL1        0.2266
      2 C         143.9140  141.7859  163.4076 C.ar    1  UNL1        0.0617
      3 C         142.8765  141.7703  164.4907 C.ar    1  UNL1        0.0805
      4 C         141.6972  142.6940  164.4131 C.ar    1  UNL1        0.0590
      5 C         140.5238  142.9023  165.3241 C.ar    1  UNL1        0.1038
      6 N         139.6568  143.9704  164.7262 N.ar    1  UNL1       -0.1679
      7 N         140.2944  144.4222  163.4458 N.ar    1  UNL1       -0.2319
      8 C         139.7641  145.4776  162.5212 C.3     1  UNL1        0.1554
      9 C         141.5554  143.6333  163.2523 C.ar    1  UNL1        0.1639
     10 N         142.5929  143.6490  162.1692 N.ar    1  UNL1       -0.1928
     11 C         140.2632  142.1709  166.6075 C.ar    1  UNL1        0.0194
     12 C         139.6618  140.7970  166.5790 C.ar    1  UNL1        0.0016
     13 C         139.4012  140.0657  167.8624 C.ar    1  UNL1        0.0000
     14 C         139.7419  140.7082  169.1743 C.ar    1  UNL1        0.0000
     15 C         140.3433  142.0821  169.2028 C.ar    1  UNL1        0.0000
     16 C         140.6039  142.8134  167.9194 C.ar    1  UNL1        0.0016
     17 C         143.0183  140.8309  165.6516 C.3     1  UNL1        0.4189
     18 F         143.1601  139.8916  166.8124 F       1  UNL1       -0.1659
     19 F         143.5891  141.9425  166.4813 F       1  UNL1       -0.1659
     20 F         142.4475  139.7193  164.8219 F       1  UNL1       -0.1659
     21 O         144.8097  142.7409  161.1635 O.3     1  UNL1       -0.4501
     22 C         144.4200  142.4371  159.7473 C.3     1  UNL1        0.2910
     23 N         143.7340  139.9318  159.7987 N.am    1  UNL1       -0.2992
     24 C         143.4180  141.3584  159.4600 C.2     1  UNL1        0.2673
     25 O         142.1001  141.7064  158.8340 O.2     1  UNL1       -0.2711
     26 H         144.5991  139.7034  160.2096 H       1  UNL1        0.1498
     27 C         142.7321  138.8531  159.5115 C.3     1  UNL1        0.0942
     28 C         142.7536  138.1418  158.1910 C.3     1  UNL1        0.0262
     29 C         139.6615  137.7510  162.6109 C.ar    1  UNL1        0.1387
     30 C         141.1212  137.5649  162.9020 C.ar    1  UNL1        0.0366
     31 C         142.1447  137.9323  161.8689 C.ar    1  UNL1        0.0004
     32 C         141.7086  138.4858  160.5446 C.ar    1  UNL1       -0.0043
     33 C         140.2489  138.6718  160.2536 C.ar    1  UNL1        0.0004
     34 C         139.2254  138.3045  161.2868 C.ar    1  UNL1        0.0366
     35 C         138.9720  137.4920  165.1025 C.3     1  UNL1        0.2525
     36 O         138.6379  137.3837  163.6441 O.3     1  UNL1       -0.4714
@<TRIPOS>BOND
     1    35    36    1
     2    36    29    1
     3    29    30   ar
     4    30    31   ar
     5    31    32   ar
     6    32    27    1
     7    27    28    1
     8    27    23    1
     9    23    24   am
    10    24    25    2
    11    24    22    1
    12    22    21    1
    13    21     1    1
    14     1     2   ar
    15     2     3   ar
    16     3    17    1
    17    17    18    1
    18    17    19    1
    19    17    20    1
    20     3     4   ar
    21     4     5   ar
    22     5    11    1
    23    11    12   ar
    24    12    13   ar
    25    13    14   ar
    26    14    15   ar
    27    15    16   ar
    28     5     6   ar
    29     6     7   ar
    30     7     8    1
    31     7     9   ar
    32     9    10   ar
    33    32    33   ar
    34    33    34   ar
    35    34    29   ar
    36    10     1   ar
    37     9     4   ar
    38    16    11   ar
    39    23    26    1
@<TRIPOS>MOLECULE
*****
 36 39 0 0 0
SMALL
GASTEIGER

@<TRIPOS>ATOM
      1 C         141.2766  144.6178  161.2419 C.ar    1  UNL1        0.2266
      2 C         140.1481  144.4509  162.2158 C.ar    1  UNL1        0.0617
      3 C         140.3178  143.5675  163.4161 C.ar    1  UNL1        0.0805
      4 C         141.6160  142.8511  163.6425 C.ar    1  UNL1        0.0590
      5 C         142.0732  141.9210  164.7269 C.ar    1  UNL1        0.1038
      6 N         143.4844  141.5131  164.4232 N.ar    1  UNL1       -0.1679
      7 N         143.8992  142.1911  163.1511 N.ar    1  UNL1       -0.2319
      8 C         145.2344  142.0644  162.4794 C.3     1  UNL1        0.1554
      9 C         142.7445  143.0180  162.6686 C.ar    1  UNL1        0.1639
     10 N         142.5748  143.9014  161.4683 N.ar    1  UNL1       -0.1928
     11 C         141.2618  141.4768  165.9077 C.ar    1  UNL1        0.0194
     12 C         140.4386  140.2256  165.8241 C.ar    1  UNL1        0.0016
     13 C         139.6272  139.7815  167.0049 C.ar    1  UNL1        0.0000
     14 C         139.6390  140.5885  168.2693 C.ar    1  UNL1        0.0000
     15 C         140.4621  141.8397  168.3529 C.ar    1  UNL1        0.0000
     16 C         141.2735  142.2838  167.1720 C.ar    1  UNL1        0.0016
     17 C         139.1892  143.4006  164.3900 C.3     1  UNL1        0.4189
     18 F         138.0607  143.2336  165.3639 F       1  UNL1       -0.1659
     19 F         138.7483  142.1626  163.6669 F       1  UNL1       -0.1659
     20 F         139.6300  144.6386  165.1132 F       1  UNL1       -0.1659
     21 O         141.1069  145.5013  160.0415 O.3     1  UNL1       -0.4501
     22 C         140.2931  145.0304  158.8728 C.3     1  UNL1        0.2910
     23 N         138.7087  143.0143  159.2914 N.am    1  UNL1       -0.2992
     24 C         139.9773  143.5722  158.7175 C.2     1  UNL1        0.2673
     25 O         140.9302  142.6720  157.9884 O.2     1  UNL1       -0.2711
     26 H         138.0833  143.6052  159.7699 H       1  UNL1        0.1498
     27 C         138.3930  141.5562  159.1361 C.3     1  UNL1        0.0942
     28 C         137.7658  141.0554  157.8688 C.3     1  UNL1        0.0262
     29 C         139.3272  138.6841  162.4720 C.ar    1  UNL1        0.1387
     30 C         140.3481  139.6977  162.0471 C.ar    1  UNL1        0.0366
     31 C         140.0367  140.6551  160.9351 C.ar    1  UNL1        0.0004
     32 C         138.7044  140.5989  160.2481 C.ar    1  UNL1       -0.0043
     33 C         137.6836  139.5853  160.6730 C.ar    1  UNL1        0.0004
     34 C         137.9950  138.6279  161.7850 C.ar    1  UNL1        0.0366
     35 C         141.0089  137.1267  163.6953 C.3     1  UNL1        0.2525
     36 O         139.6386  137.7267  163.5840 O.3     1  UNL1       -0.4714
@<TRIPOS>BOND
     1    35    36    1
     2    36    29    1
     3    29    30   ar
     4    30    31   ar
     5    31    32   ar
     6    32    27    1
     7    27    28    1
     8    27    23    1
     9    23    24   am
    10    24    25    2
    11    24    22    1
    12    22    21    1
    13    21     1    1
    14     1     2   ar
    15     2     3   ar
    16     3    17    1
    17    17    18    1
    18    17    19    1
    19    17    20    1
    20     3     4   ar
    21     4     5   ar
    22     5    11    1
    23    11    12   ar
    24    12    13   ar
    25    13    14   ar
    26    14    15   ar
    27    15    16   ar
    28     5     6   ar
    29     6     7   ar
    30     7     8    1
    31     7     9   ar
    32     9    10   ar
    33    32    33   ar
    34    33    34   ar
    35    34    29   ar
    36    10     1   ar
    37     9     4   ar
    38    16    11   ar
    39    23    26    1
@<TRIPOS>MOLECULE
*****
 36 39 0 0 0
SMALL
GASTEIGER

@<TRIPOS>ATOM
      1 C         141.3561  142.0386  168.0592 C.ar    1  UNL1        0.2266
      2 C         142.4388  141.3622  167.2718 C.ar    1  UNL1        0.0617
      3 C         142.5380  141.5815  165.7912 C.ar    1  UNL1        0.0805
      4 C         141.5545  142.4772  165.0981 C.ar    1  UNL1        0.0590
      5 C         141.4036  142.8804  163.6612 C.ar    1  UNL1        0.1038
      6 N         140.2275  143.8060  163.5606 N.ar    1  UNL1       -0.1679
      7 N         139.6516  143.9748  164.9353 N.ar    1  UNL1       -0.2319
      8 C         138.4641  144.8171  165.2964 C.3     1  UNL1        0.1554
      9 C         140.4718  143.1536  165.8855 C.ar    1  UNL1        0.1639
     10 N         140.3726  142.9343  167.3661 N.ar    1  UNL1       -0.1928
     11 C         142.2756  142.4360  162.5245 C.ar    1  UNL1        0.0194
     12 C         143.4763  143.2479  162.1385 C.ar    1  UNL1        0.0016
     13 C         144.3483  142.8034  161.0018 C.ar    1  UNL1        0.0000
     14 C         144.0195  141.5471  160.2511 C.ar    1  UNL1        0.0000
     15 C         142.8187  140.7352  160.6371 C.ar    1  UNL1        0.0000
     16 C         141.9468  141.1796  161.7738 C.ar    1  UNL1        0.0016
     17 C         143.6208  140.9051  165.0037 C.3     1  UNL1        0.4189
     18 F         144.7035  140.2286  164.2162 F       1  UNL1       -0.1659
     19 F         142.7545  139.6894  164.8568 F       1  UNL1       -0.1659
     20 F         144.4872  142.1207  165.1507 F       1  UNL1       -0.1659
     21 O         141.2568  141.8194  169.5398 O.3     1  UNL1       -0.4501
     22 C         140.4517  140.6730  170.0759 C.3     1  UNL1        0.2910
     23 N         139.6017  139.7530  167.7996 N.am    1  UNL1       -0.2992
     24 C         139.3572  140.0717  169.2448 C.2     1  UNL1        0.2673
     25 O         138.0182  139.7890  169.8590 O.2     1  UNL1       -0.2711
     26 H         140.4806  139.9385  167.3965 H       1  UNL1        0.1498
     27 C         138.5073  139.1518  166.9686 C.3     1  UNL1        0.0942
     28 C         137.3909  138.3990  167.6298 C.3     1  UNL1        0.0262
     29 C         138.5729  139.6061  162.4921 C.ar    1  UNL1        0.1387
     30 C         138.1591  140.7597  163.3571 C.ar    1  UNL1        0.0366
     31 C         138.1372  140.6083  164.8493 C.ar    1  UNL1        0.0004
     32 C         138.5291  139.3032  165.4765 C.ar    1  UNL1       -0.0043
     33 C         138.9429  138.1497  164.6115 C.ar    1  UNL1        0.0004
     34 C         138.9648  138.3012  163.1193 C.ar    1  UNL1        0.0366
     35 C         139.2615  138.7168  160.1501 C.3     1  UNL1        0.2525
     36 O         138.5947  139.7576  160.9999 O.3     1  UNL1       -0.4714
@<TRIPOS>BOND
     1    35    36    1
     2    36    29    1
     3    29    30   ar
     4    30    31   ar
     5    31    32   ar
     6    32    27    1
     7    27    28    1
     8    27    23    1
     9    23    24   am
    10    24    25    2
    11    24    22    1
    12    22    21    1
    13    21     1    1
    14     1     2   ar
    15     2     3   ar
    16     3    17    1
    17    17    18    1
    18    17    19    1
    19    17    20    1
    20     3     4   ar
    21     4     5   ar
    22     5    11    1
    23    11    12   ar
    24    12    13   ar
    25    13    14   ar
    26    14    15   ar
    27    15    16   ar
    28     5     6   ar
    29     6     7   ar
    30     7     8    1
    31     7     9   ar
    32     9    10   ar
    33    32    33   ar
    34    33    34   ar
    35    34    29   ar
    36    10     1   ar
    37     9     4   ar
    38    16    11   ar
    39    23    26    1
