@<TRIPOS>MOLECULE
*****
 20 21 0 0 0
SMALL
GASTEIGER

@<TRIPOS>ATOM
      1 N         141.3904  140.6875  163.4657 N.am    1  UNL1       -0.2606
      2 C         142.7743  140.6032  164.0385 C.3     1  UNL1        0.1169
      3 C         142.6742  140.7973  165.5225 C.3     1  UNL1        0.1212
      4 N         141.2286  141.0015  165.8669 N.am    1  UNL1       -0.2413
      5 C         140.4352  140.9337  164.5958 C.2     1  UNL1        0.3111
      6 O         138.9478  141.0853  164.4757 O.2     1  UNL1       -0.2520
      7 C         140.6739  141.2329  167.2413 C.ar    1  UNL1        0.0562
      8 C         139.9342  140.1348  167.9462 C.ar    1  UNL1        0.0150
      9 C         139.3795  140.3663  169.3205 C.ar    1  UNL1        0.0021
     10 C         139.5645  141.6959  169.9898 C.ar    1  UNL1        0.0115
     11 C         140.3042  142.7940  169.2849 C.ar    1  UNL1        0.0589
     12 CL        140.4892  144.1235  169.9542 Cl      1  UNL1       -0.0822
     13 C         140.8589  142.5625  167.9106 C.ar    1  UNL1        0.0263
     14 C         141.0259  140.5498  162.0172 C.3     1  UNL1        0.1123
     15 C         140.6758  139.2033  161.4566 C.3     1  UNL1        0.0939
     16 N         140.1761  138.1195  162.3653 N.3     1  UNL1       -0.2712
     17 C         137.7269  138.7456  161.7662 C.3     1  UNL1        0.0188
     18 C         138.7015  137.9018  162.5330 C.3     1  UNL1        0.0722
     19 C         141.1511  137.2533  163.1063 C.3     1  UNL1        0.0722
     20 C         141.1161  137.1971  164.6048 C.3     1  UNL1        0.0188
@<TRIPOS>BOND
     1    17    18    1
     2    18    16    1
     3    16    19    1
     4    19    20    1
     5    16    15    1
     6    15    14    1
     7    14     1    1
     8     1     2    1
     9     2     3    1
    10     3     4    1
    11     4     7    1
    12     7     8   ar
    13     8     9   ar
    14     9    10   ar
    15    10    11   ar
    16    11    12    1
    17    11    13   ar
    18     4     5   am
    19     5     6    2
    20     5     1   am
    21    13     7   ar
@<TRIPOS>MOLECULE
*****
 20 21 0 0 0
SMALL
GASTEIGER

@<TRIPOS>ATOM
      1 N         139.2109  140.6909  162.6148 N.am    1  UNL1       -0.2606
      2 C         138.3805  139.4834  162.9352 C.3     1  UNL1        0.1169
      3 C         138.7072  139.0544  164.3349 C.3     1  UNL1        0.1212
      4 N         139.7395  139.9967  164.8795 N.am    1  UNL1       -0.2413
      5 C         140.0508  141.0080  163.8164 C.2     1  UNL1        0.3111
      6 O         141.0301  142.1381  163.9342 O.2     1  UNL1       -0.2520
      7 C         140.3529  139.9378  166.2472 C.ar    1  UNL1        0.0562
      8 C         141.8185  139.6579  166.4005 C.ar    1  UNL1        0.0150
      9 C         142.4318  139.5990  167.7681 C.ar    1  UNL1        0.0021
     10 C         141.5794  139.8202  168.9824 C.ar    1  UNL1        0.0115
     11 C         140.1138  140.1002  168.8291 C.ar    1  UNL1        0.0589
     12 CL        139.2614  140.3214  170.0435 Cl      1  UNL1       -0.0822
     13 C         139.5005  140.1590  167.4615 C.ar    1  UNL1        0.0263
     14 C         139.2028  141.4481  161.3200 C.3     1  UNL1        0.1123
     15 C         138.3511  142.6741  161.1735 C.3     1  UNL1        0.0939
     16 N         138.6200  143.8801  162.0240 N.3     1  UNL1       -0.2712
     17 C         138.1614  144.1634  164.5655 C.3     1  UNL1        0.0188
     18 C         137.6863  144.2310  163.1443 C.3     1  UNL1        0.0722
     19 C         139.8224  144.7352  161.7541 C.3     1  UNL1        0.0722
     20 C         139.7018  146.2300  161.7849 C.3     1  UNL1        0.0188
@<TRIPOS>BOND
     1    17    18    1
     2    18    16    1
     3    16    19    1
     4    19    20    1
     5    16    15    1
     6    15    14    1
     7    14     1    1
     8     1     2    1
     9     2     3    1
    10     3     4    1
    11     4     7    1
    12     7     8   ar
    13     8     9   ar
    14     9    10   ar
    15    10    11   ar
    16    11    12    1
    17    11    13   ar
    18     4     5   am
    19     5     6    2
    20     5     1   am
    21    13     7   ar
@<TRIPOS>MOLECULE
*****
 20 21 0 0 0
SMALL
GASTEIGER

@<TRIPOS>ATOM
      1 N         141.1131  140.8464  163.5387 N.am    1  UNL1       -0.2606
      2 C         139.6692  140.4450  163.4730 C.3     1  UNL1        0.1169
      3 C         139.0982  140.5404  164.8568 C.3     1  UNL1        0.1212
      4 N         140.1892  141.0007  165.7777 N.am    1  UNL1       -0.2413
      5 C         141.4344  141.1897  164.9630 C.2     1  UNL1        0.3111
      6 O         142.7670  141.6427  165.4816 O.2     1  UNL1       -0.2520
      7 C         140.0579  141.2313  167.2541 C.ar    1  UNL1        0.0562
      8 C         139.5641  140.1297  168.1443 C.ar    1  UNL1        0.0150
      9 C         139.4329  140.3605  169.6206 C.ar    1  UNL1        0.0021
     10 C         139.7955  141.6928  170.2066 C.ar    1  UNL1        0.0115
     11 C         140.2893  142.7944  169.3164 C.ar    1  UNL1        0.0589
     12 CL        140.6519  144.1267  169.9025 Cl      1  UNL1       -0.0822
     13 C         140.4205  142.5637  167.8401 C.ar    1  UNL1        0.0263
     14 C         142.0679  140.8956  162.3828 C.3     1  UNL1        0.1123
     15 C         142.6088  142.2132  161.9125 C.3     1  UNL1        0.0939
     16 N         143.9593  142.6768  162.3724 N.3     1  UNL1       -0.2712
     17 C         143.7675  144.7107  163.9774 C.3     1  UNL1        0.0188
     18 C         144.1950  144.1294  162.6624 C.3     1  UNL1        0.0722
     19 C         145.0740  141.6876  162.5422 C.3     1  UNL1        0.0722
     20 C         145.8415  141.6363  163.8299 C.3     1  UNL1        0.0188
@<TRIPOS>BOND
     1    17    18    1
     2    18    16    1
     3    16    19    1
     4    19    20    1
     5    16    15    1
     6    15    14    1
     7    14     1    1
     8     1     2    1
     9     2     3    1
    10     3     4    1
    11     4     7    1
    12     7     8   ar
    13     8     9   ar
    14     9    10   ar
    15    10    11   ar
    16    11    12    1
    17    11    13   ar
    18     4     5   am
    19     5     6    2
    20     5     1   am
    21    13     7   ar
@<TRIPOS>MOLECULE
*****
 20 21 0 0 0
SMALL
GASTEIGER

@<TRIPOS>ATOM
      1 N         141.9564  140.6023  163.5597 N.am    1  UNL1       -0.2606
      2 C         141.8934  139.1041  163.5198 C.3     1  UNL1        0.1169
      3 C         141.6991  138.6108  164.9230 C.3     1  UNL1        0.1212
      4 N         141.6420  139.8041  165.8301 N.am    1  UNL1       -0.2413
      5 C         141.8010  141.0349  164.9875 C.2     1  UNL1        0.3111
      6 O         141.8040  142.4499  165.4853 O.2     1  UNL1       -0.2520
      7 C         141.4582  139.7722  167.3185 C.ar    1  UNL1        0.0562
      8 C         142.6037  139.3888  168.2076 C.ar    1  UNL1        0.0150
      9 C         142.4199  139.3569  169.6959 C.ar    1  UNL1        0.0021
     10 C         141.0904  139.7084  170.2951 C.ar    1  UNL1        0.0115
     11 C         139.9449  140.0919  169.4059 C.ar    1  UNL1        0.0589
     12 CL        138.6154  140.4435  170.0051 Cl      1  UNL1       -0.0822
     13 C         140.1287  140.1238  167.9176 C.ar    1  UNL1        0.0263
     14 C         142.1421  141.5087  162.3790 C.3     1  UNL1        0.1123
     15 C         143.5173  141.9690  161.9959 C.3     1  UNL1        0.0939
     16 N         144.2876  142.8737  162.9114 N.3     1  UNL1       -0.2712
     17 C         143.1862  145.1000  163.6731 C.3     1  UNL1        0.0188
     18 C         144.1465  144.3619  162.7884 C.3     1  UNL1        0.0722
     19 C         145.1989  142.2901  163.9500 C.3     1  UNL1        0.0722
     20 C         145.4727  140.8153  163.9642 C.3     1  UNL1        0.0188
@<TRIPOS>BOND
     1    17    18    1
     2    18    16    1
     3    16    19    1
     4    19    20    1
     5    16    15    1
     6    15    14    1
     7    14     1    1
     8     1     2    1
     9     2     3    1
    10     3     4    1
    11     4     7    1
    12     7     8   ar
    13     8     9   ar
    14     9    10   ar
    15    10    11   ar
    16    11    12    1
    17    11    13   ar
    18     4     5   am
    19     5     6    2
    20     5     1   am
    21    13     7   ar
@<TRIPOS>MOLECULE
*****
 20 21 0 0 0
SMALL
GASTEIGER

@<TRIPOS>ATOM
      1 N         141.0140  141.6205  163.4383 N.am    1  UNL1       -0.2606
      2 C         140.9672  140.2125  163.9533 C.3     1  UNL1        0.1169
      3 C         141.1410  140.2577  165.4425 C.3     1  UNL1        0.1212
      4 N         141.2953  141.6936  165.8479 N.am    1  UNL1       -0.2413
      5 C         141.2168  142.5359  164.6092 C.2     1  UNL1        0.3111
      6 O         141.3225  144.0310  164.5515 O.2     1  UNL1       -0.2520
      7 C         141.4933  142.1986  167.2464 C.ar    1  UNL1        0.0562
      8 C         140.3458  142.8137  167.9912 C.ar    1  UNL1        0.0150
      9 C         140.5439  143.3187  169.3897 C.ar    1  UNL1        0.0021
     10 C         141.8894  143.2085  170.0434 C.ar    1  UNL1        0.0115
     11 C         143.0370  142.5933  169.2986 C.ar    1  UNL1        0.0589
     12 CL        144.3825  142.4831  169.9522 Cl      1  UNL1       -0.0822
     13 C         142.8389  142.0884  167.9001 C.ar    1  UNL1        0.0263
     14 C         140.8813  142.0396  162.0041 C.3     1  UNL1        0.1123
     15 C         139.6309  142.7224  161.5349 C.3     1  UNL1        0.0939
     16 N         138.4069  142.7244  162.4020 N.3     1  UNL1       -0.2712
     17 C         137.8041  143.9906  164.5890 C.3     1  UNL1        0.0188
     18 C         137.9843  143.9831  163.1000 C.3     1  UNL1        0.0722
     19 C         137.6056  141.4678  162.5711 C.3     1  UNL1        0.0722
     20 C         137.5942  140.4337  161.4845 C.3     1  UNL1        0.0188
@<TRIPOS>BOND
     1    17    18    1
     2    18    16    1
     3    16    19    1
     4    19    20    1
     5    16    15    1
     6    15    14    1
     7    14     1    1
     8     1     2    1
     9     2     3    1
    10     3     4    1
    11     4     7    1
    12     7     8   ar
    13     8     9   ar
    14     9    10   ar
    15    10    11   ar
    16    11    12    1
    17    11    13   ar
    18     4     5   am
    19     5     6    2
    20     5     1   am
    21    13     7   ar
@<TRIPOS>MOLECULE
*****
 20 21 0 0 0
SMALL
GASTEIGER

@<TRIPOS>ATOM
      1 N         141.4408  140.6083  164.0101 N.am    1  UNL1       -0.2606
      2 C         141.1073  142.0423  163.7227 C.3     1  UNL1        0.1169
      3 C         141.2066  142.8080  165.0088 C.3     1  UNL1        0.1212
      4 N         141.6013  141.8472  166.0910 N.am    1  UNL1       -0.2413
      5 C         141.7461  140.4878  165.4738 C.2     1  UNL1        0.3111
      6 O         142.1290  139.2288  166.1937 O.2     1  UNL1       -0.2520
      7 C         141.8140  142.1864  167.5366 C.ar    1  UNL1        0.0562
      8 C         143.1989  142.1795  168.1127 C.ar    1  UNL1        0.0150
      9 C         143.4115  142.5186  169.5583 C.ar    1  UNL1        0.0021
     10 C         142.2392  142.8647  170.4278 C.ar    1  UNL1        0.0115
     11 C         140.8543  142.8716  169.8517 C.ar    1  UNL1        0.0589
     12 CL        139.6820  143.2177  170.7211 Cl      1  UNL1       -0.0822
     13 C         140.6417  142.5325  168.4061 C.ar    1  UNL1        0.0263
     14 C         141.4648  139.4911  163.0095 C.3     1  UNL1        0.1123
     15 C         140.5693  138.3017  163.1918 C.3     1  UNL1        0.0939
     16 N         139.1846  138.4823  163.7395 N.3     1  UNL1       -0.2712
     17 C         138.2300  138.8434  166.1286 C.3     1  UNL1        0.0188
     18 C         138.8380  137.9422  165.0953 C.3     1  UNL1        0.0722
     19 C         138.1466  139.2030  162.9315 C.3     1  UNL1        0.0722
     20 C         137.7351  138.6688  161.5916 C.3     1  UNL1        0.0188
@<TRIPOS>BOND
     1    17    18    1
     2    18    16    1
     3    16    19    1
     4    19    20    1
     5    16    15    1
     6    15    14    1
     7    14     1    1
     8     1     2    1
     9     2     3    1
    10     3     4    1
    11     4     7    1
    12     7     8   ar
    13     8     9   ar
    14     9    10   ar
    15    10    11   ar
    16    11    12    1
    17    11    13   ar
    18     4     5   am
    19     5     6    2
    20     5     1   am
    21    13     7   ar
@<TRIPOS>MOLECULE
*****
 20 21 0 0 0
SMALL
GASTEIGER

@<TRIPOS>ATOM
      1 N         141.0148  141.5029  163.6458 N.am    1  UNL1       -0.2606
      2 C         140.4808  140.2292  164.2312 C.3     1  UNL1        0.1169
      3 C         140.6564  140.2939  165.7195 C.3     1  UNL1        0.1212
      4 N         141.2989  141.6075  166.0538 N.am    1  UNL1       -0.2413
      5 C         141.5204  142.3547  164.7722 C.2     1  UNL1        0.3111
      6 O         142.1389  143.7148  164.6401 O.2     1  UNL1       -0.2520
      7 C         141.6570  142.0893  167.4285 C.ar    1  UNL1        0.0562
      8 C         143.0088  141.7831  168.0021 C.ar    1  UNL1        0.0150
      9 C         143.3668  142.2648  169.3767 C.ar    1  UNL1        0.0021
     10 C         142.3731  143.0528  170.1778 C.ar    1  UNL1        0.0115
     11 C         141.0214  143.3590  169.6043 C.ar    1  UNL1        0.0589
     12 CL        140.0277  144.1469  170.4053 Cl      1  UNL1       -0.0822
     13 C         140.6633  142.8772  168.2296 C.ar    1  UNL1        0.0263
     14 C         141.0389  141.8618  162.1895 C.3     1  UNL1        0.1123
     15 C         140.3764  143.1217  161.7164 C.3     1  UNL1        0.0939
     16 N         139.1110  143.5941  162.3688 N.3     1  UNL1       -0.2712
     17 C         137.4020  141.7803  163.1028 C.3     1  UNL1        0.0188
     18 C         137.8279  142.8509  162.1425 C.3     1  UNL1        0.0722
     19 C         139.1288  144.8097  163.2473 C.3     1  UNL1        0.0722
     20 C         138.7080  144.7036  164.6831 C.3     1  UNL1        0.0188
@<TRIPOS>BOND
     1    17    18    1
     2    18    16    1
     3    16    19    1
     4    19    20    1
     5    16    15    1
     6    15    14    1
     7    14     1    1
     8     1     2    1
     9     2     3    1
    10     3     4    1
    11     4     7    1
    12     7     8   ar
    13     8     9   ar
    14     9    10   ar
    15    10    11   ar
    16    11    12    1
    17    11    13   ar
    18     4     5   am
    19     5     6    2
    20     5     1   am
    21    13     7   ar
@<TRIPOS>MOLECULE
*****
 20 21 0 0 0
SMALL
GASTEIGER

@<TRIPOS>ATOM
      1 N         141.9843  139.9397  164.0532 N.am    1  UNL1       -0.2606
      2 C         140.6419  140.3998  163.5669 C.3     1  UNL1        0.1169
      3 C         139.8585  140.8787  164.7530 C.3     1  UNL1        0.1212
      4 N         140.7166  140.7147  165.9723 N.am    1  UNL1       -0.2413
      5 C         142.0304  140.1343  165.5398 C.2     1  UNL1        0.3111
      6 O         143.1873  139.8062  166.4365 O.2     1  UNL1       -0.2520
      7 C         140.3290  141.0688  167.3775 C.ar    1  UNL1        0.0562
      8 C         139.6304  140.0597  168.2397 C.ar    1  UNL1        0.0150
      9 C         139.2428  140.4138  169.6448 C.ar    1  UNL1        0.0021
     10 C         139.5537  141.7772  170.1876 C.ar    1  UNL1        0.0115
     11 C         140.2522  142.7864  169.3253 C.ar    1  UNL1        0.0589
     12 CL        140.5631  144.1497  169.8681 Cl      1  UNL1       -0.0822
     13 C         140.6399  142.4322  167.9202 C.ar    1  UNL1        0.0263
     14 C         143.0869  139.3827  163.2023 C.3     1  UNL1        0.1123
     15 C         144.4044  140.0951  163.1211 C.3     1  UNL1        0.0939
     16 N         144.4538  141.5922  163.2018 N.3     1  UNL1       -0.2712
     17 C         144.3809  143.3249  165.1362 C.3     1  UNL1        0.0188
     18 C         145.1105  142.2588  164.3741 C.3     1  UNL1        0.0722
     19 C         143.8465  142.4224  162.1102 C.3     1  UNL1        0.0722
     20 C         144.5519  142.5626  160.7938 C.3     1  UNL1        0.0188
@<TRIPOS>BOND
     1    17    18    1
     2    18    16    1
     3    16    19    1
     4    19    20    1
     5    16    15    1
     6    15    14    1
     7    14     1    1
     8     1     2    1
     9     2     3    1
    10     3     4    1
    11     4     7    1
    12     7     8   ar
    13     8     9   ar
    14     9    10   ar
    15    10    11   ar
    16    11    12    1
    17    11    13   ar
    18     4     5   am
    19     5     6    2
    20     5     1   am
    21    13     7   ar
@<TRIPOS>MOLECULE
*****
 20 21 0 0 0
SMALL
GASTEIGER

@<TRIPOS>ATOM
      1 N         140.1740  141.2374  163.0090 N.am    1  UNL1       -0.2606
      2 C         141.5611  141.8044  163.0766 C.3     1  UNL1        0.1169
      3 C         142.0790  141.5975  164.4690 C.3     1  UNL1        0.1212
      4 N         141.0120  140.9027  165.2620 N.am    1  UNL1       -0.2413
      5 C         139.8347  140.6801  164.3597 C.2     1  UNL1        0.3111
      6 O         138.5445  140.0168  164.7410 O.2     1  UNL1       -0.2520
      7 C         141.1060  140.5010  166.7043 C.ar    1  UNL1        0.0562
      8 C         142.3914  139.9510  167.2474 C.ar    1  UNL1        0.0150
      9 C         142.4853  139.5494  168.6895 C.ar    1  UNL1        0.0021
     10 C         141.2937  139.6977  169.5885 C.ar    1  UNL1        0.0115
     11 C         140.0083  140.2477  169.0454 C.ar    1  UNL1        0.0589
     12 CL        138.8167  140.3960  169.9444 Cl      1  UNL1       -0.0822
     13 C         139.9144  140.6493  167.6032 C.ar    1  UNL1        0.0263
     14 C         139.2827  141.2291  161.8025 C.3     1  UNL1        0.1123
     15 C         138.2318  142.2869  161.6391 C.3     1  UNL1        0.0939
     16 N         138.5166  143.6983  162.0596 N.3     1  UNL1       -0.2712
     17 C         140.2611  145.6234  162.0787 C.3     1  UNL1        0.0188
     18 C         139.5916  144.4841  161.3690 C.3     1  UNL1        0.0722
     19 C         137.7264  144.3238  163.1705 C.3     1  UNL1        0.0722
     20 C         137.9267  143.8643  164.5843 C.3     1  UNL1        0.0188
@<TRIPOS>BOND
     1    17    18    1
     2    18    16    1
     3    16    19    1
     4    19    20    1
     5    16    15    1
     6    15    14    1
     7    14     1    1
     8     1     2    1
     9     2     3    1
    10     3     4    1
    11     4     7    1
    12     7     8   ar
    13     8     9   ar
    14     9    10   ar
    15    10    11   ar
    16    11    12    1
    17    11    13   ar
    18     4     5   am
    19     5     6    2
    20     5     1   am
    21    13     7   ar
