@<TRIPOS>MOLECULE
*****
 30 33 0 0 0
SMALL
GASTEIGER

@<TRIPOS>ATOM
      1 C         138.9564  139.8931  167.4309 C.3     1  UNL1        0.0401
      2 C         138.2394  138.8956  166.5702 C.3     1  UNL1        0.0595
      3 C         137.3771  137.8430  167.2015 C.3     1  UNL1        0.0174
      4 C         138.6753  139.0606  162.0944 C.3     1  UNL1        0.0810
      5 C         138.9336  137.7770  162.8263 C.3     1  UNL1        0.0266
      6 C         138.7883  137.7220  164.3182 C.3     1  UNL1        0.0725
      7 N         138.3847  138.9506  165.0782 N.3     1  UNL1       -0.2739
      8 C         138.1263  140.2342  164.3464 C.3     1  UNL1        0.0725
      9 C         138.2716  140.2892  162.8545 C.3     1  UNL1        0.0266
     10 C         140.4690  138.2729  157.1910 C.3     1  UNL1        0.0967
     11 C         139.6450  138.7536  158.3486 C.ar    1  UNL1        0.2266
     12 N         138.4431  139.6472  158.2646 N.ar    1  UNL1       -0.1117
     13 N         137.9336  139.8709  159.6575 N.ar    1  UNL1       -0.1117
     14 C         138.8206  139.1156  160.6024 C.ar    1  UNL1        0.2257
     15 O         139.8782  138.4251  159.7935 O.2     1  UNL1       -0.4233
     16 C         140.4337  140.0973  167.2707 C.3     1  UNL1        0.0954
     17 C         141.1686  141.0183  168.1989 C.ar    1  UNL1       -0.0045
     18 C         140.5040  142.2671  168.6980 C.ar    1  UNL1       -0.0027
     19 C         141.2389  143.1881  169.6262 C.ar    1  UNL1       -0.0003
     20 C         142.6384  142.8605  170.0552 C.ar    1  UNL1       -0.0000
     21 C         143.3030  141.6118  169.5561 C.ar    1  UNL1       -0.0003
     22 C         142.5681  140.6908  168.6279 C.ar    1  UNL1       -0.0027
     23 N         141.1762  139.3803  166.1822 N.am    1  UNL1       -0.3022
     24 C         141.6684  140.1383  164.9850 C.2     1  UNL1        0.2222
     25 O         141.4180  141.6133  164.8763 O.2     1  UNL1       -0.2751
     26 H         141.3406  138.4123  166.2535 H       1  UNL1        0.1497
     27 C         142.4109  139.4213  163.8967 C.3     1  UNL1        0.0765
     28 C         142.4115  138.0217  163.3572 C.3     1  UNL1        0.0091
     29 C         143.4609  138.4074  162.3574 C.3     1  UNL1        0.0010
     30 C         143.4604  139.8071  162.8968 C.3     1  UNL1        0.0091
@<TRIPOS>BOND
     1    10    11    1
     2    11    12   ar
     3    12    13   ar
     4    13    14   ar
     5    14     4    1
     6     4     5    1
     7     5     6    1
     8     6     7    1
     9     7     2    1
    10     2     3    1
    11     2     1    1
    12    16     1    1
    13    16    23    1
    14    23    24   am
    15    24    25    2
    16    24    27    1
    17    27    28    1
    18    28    29    1
    19    29    30    1
    20    16    17    1
    21    17    18   ar
    22    18    19   ar
    23    19    20   ar
    24    20    21   ar
    25    21    22   ar
    26     7     8    1
    27     8     9    1
    28    14    15   ar
    29    15    11   ar
    30     9     4    1
    31    30    27    1
    32    22    17   ar
    33    23    26    1
@<TRIPOS>MOLECULE
*****
 30 33 0 0 0
SMALL
GASTEIGER

@<TRIPOS>ATOM
      1 C         139.8568  143.5165  165.6193 C.3     1  UNL1        0.0401
      2 C         139.0244  143.2561  164.3990 C.3     1  UNL1        0.0595
      3 C         137.7443  142.4829  164.5153 C.3     1  UNL1        0.0174
      4 C         140.3671  144.7950  160.3892 C.3     1  UNL1        0.0810
      5 C         139.9510  145.7582  161.4611 C.3     1  UNL1        0.0266
      6 C         139.5034  145.2452  162.7977 C.3     1  UNL1        0.0725
      7 N         139.4720  143.7691  163.0623 N.3     1  UNL1       -0.2739
      8 C         139.8881  142.8059  161.9904 C.3     1  UNL1        0.0725
      9 C         140.3357  143.3189  160.6538 C.3     1  UNL1        0.0266
     10 C         140.3093  146.7391  155.4801 C.3     1  UNL1        0.0967
     11 C         140.7881  146.2015  156.7961 C.ar    1  UNL1        0.2266
     12 N         142.2190  145.9930  157.1952 N.ar    1  UNL1       -0.1117
     13 N         142.2354  145.4407  158.5897 N.ar    1  UNL1       -0.1117
     14 C         140.8147  145.3079  159.0525 C.ar    1  UNL1        0.2257
     15 O         139.9203  145.7782  157.9440 O.2     1  UNL1       -0.4233
     16 C         140.7218  142.4285  166.1833 C.3     1  UNL1        0.0954
     17 C         141.3284  142.5833  167.5464 C.ar    1  UNL1       -0.0045
     18 C         142.7492  142.1663  167.7867 C.ar    1  UNL1       -0.0027
     19 C         143.3558  142.3211  169.1498 C.ar    1  UNL1       -0.0003
     20 C         142.5417  142.8929  170.2725 C.ar    1  UNL1       -0.0000
     21 C         141.1211  143.3099  170.0321 C.ar    1  UNL1       -0.0003
     22 C         140.5144  143.1551  168.6690 C.ar    1  UNL1       -0.0027
     23 N         140.9801  141.1856  165.3841 N.am    1  UNL1       -0.3022
     24 C         140.2767  139.9082  165.7356 C.2     1  UNL1        0.2222
     25 O         139.3150  139.8737  166.8862 O.2     1  UNL1       -0.2751
     26 H         141.6114  141.2082  164.6290 H       1  UNL1        0.1497
     27 C         140.5351  138.6654  164.9365 C.3     1  UNL1        0.0765
     28 C         141.7038  137.7420  164.7594 C.3     1  UNL1        0.0091
     29 C         140.9005  136.9078  163.8063 C.3     1  UNL1        0.0010
     30 C         139.7317  137.8312  163.9832 C.3     1  UNL1        0.0091
@<TRIPOS>BOND
     1    10    11    1
     2    11    12   ar
     3    12    13   ar
     4    13    14   ar
     5    14     4    1
     6     4     5    1
     7     5     6    1
     8     6     7    1
     9     7     2    1
    10     2     3    1
    11     2     1    1
    12    16     1    1
    13    16    23    1
    14    23    24   am
    15    24    25    2
    16    24    27    1
    17    27    28    1
    18    28    29    1
    19    29    30    1
    20    16    17    1
    21    17    18   ar
    22    18    19   ar
    23    19    20   ar
    24    20    21   ar
    25    21    22   ar
    26     7     8    1
    27     8     9    1
    28    14    15   ar
    29    15    11   ar
    30     9     4    1
    31    30    27    1
    32    22    17   ar
    33    23    26    1
@<TRIPOS>MOLECULE
*****
 30 33 0 0 0
SMALL
GASTEIGER

@<TRIPOS>ATOM
      1 C         139.3359  139.8301  165.2961 C.3     1  UNL1        0.0401
      2 C         139.3731  139.5476  163.8234 C.3     1  UNL1        0.0595
      3 C         139.0803  138.1663  163.3171 C.3     1  UNL1        0.0174
      4 C         140.3626  142.8440  160.9244 C.3     1  UNL1        0.0810
      5 C         139.1388  142.9451  161.7857 C.3     1  UNL1        0.0266
      6 C         138.8089  141.8463  162.7520 C.3     1  UNL1        0.0725
      7 N         139.7029  140.6464  162.8570 N.3     1  UNL1       -0.2739
      8 C         140.9268  140.5453  161.9957 C.3     1  UNL1        0.0725
      9 C         141.2566  141.6441  161.0294 C.3     1  UNL1        0.0266
     10 C         139.9456  146.4637  157.1027 C.3     1  UNL1        0.0967
     11 C         140.5008  145.6066  158.2014 C.ar    1  UNL1        0.2266
     12 N         141.8996  145.6609  158.7406 N.ar    1  UNL1       -0.1117
     13 N         142.0180  144.6326  159.8262 N.ar    1  UNL1       -0.1117
     14 C         140.6925  143.9428  159.9580 C.ar    1  UNL1        0.2257
     15 O         139.7549  144.5448  158.9538 O.2     1  UNL1       -0.4233
     16 C         140.5186  140.4616  165.9687 C.3     1  UNL1        0.0954
     17 C         140.7978  140.1795  167.4152 C.ar    1  UNL1       -0.0045
     18 C         142.1411  139.6581  167.8320 C.ar    1  UNL1       -0.0027
     19 C         142.4203  139.3760  169.2785 C.ar    1  UNL1       -0.0003
     20 C         141.3561  139.6153  170.3083 C.ar    1  UNL1       -0.0000
     21 C         140.0129  140.1366  169.8915 C.ar    1  UNL1       -0.0003
     22 C         139.7337  140.4187  168.4450 C.ar    1  UNL1       -0.0027
     23 N         141.4221  141.3752  165.1948 N.am    1  UNL1       -0.3022
     24 C         141.2114  142.8594  165.2472 C.2     1  UNL1        0.2222
     25 O         140.0971  143.4300  166.0735 O.2     1  UNL1       -0.2751
     26 H         142.1535  141.0007  164.6524 H       1  UNL1        0.1497
     27 C         142.1150  143.7729  164.4733 C.3     1  UNL1        0.0765
     28 C         143.5979  143.8792  164.2742 C.3     1  UNL1        0.0091
     29 C         143.3928  145.0649  163.3788 C.3     1  UNL1        0.0010
     30 C         141.9099  144.9587  163.5777 C.3     1  UNL1        0.0091
@<TRIPOS>BOND
     1    10    11    1
     2    11    12   ar
     3    12    13   ar
     4    13    14   ar
     5    14     4    1
     6     4     5    1
     7     5     6    1
     8     6     7    1
     9     7     2    1
    10     2     3    1
    11     2     1    1
    12    16     1    1
    13    16    23    1
    14    23    24   am
    15    24    25    2
    16    24    27    1
    17    27    28    1
    18    28    29    1
    19    29    30    1
    20    16    17    1
    21    17    18   ar
    22    18    19   ar
    23    19    20   ar
    24    20    21   ar
    25    21    22   ar
    26     7     8    1
    27     8     9    1
    28    14    15   ar
    29    15    11   ar
    30     9     4    1
    31    30    27    1
    32    22    17   ar
    33    23    26    1
@<TRIPOS>MOLECULE
*****
 30 33 0 0 0
SMALL
GASTEIGER

@<TRIPOS>ATOM
      1 C         139.1050  140.0841  165.4966 C.3     1  UNL1        0.0401
      2 C         139.4240  138.8418  164.7188 C.3     1  UNL1        0.0595
      3 C         138.9705  137.5040  165.2231 C.3     1  UNL1        0.0174
      4 C         141.7416  139.1286  160.8722 C.3     1  UNL1        0.0810
      5 C         142.1433  138.1302  161.9171 C.3     1  UNL1        0.0266
      6 C         141.3707  138.0346  163.1992 C.3     1  UNL1        0.0725
      7 N         140.1966  138.9374  163.4365 N.3     1  UNL1       -0.2739
      8 C         139.7949  139.9358  162.3916 C.3     1  UNL1        0.0725
      9 C         140.5675  140.0314  161.1094 C.3     1  UNL1        0.0266
     10 C         143.0963  138.7329  155.7840 C.3     1  UNL1        0.0967
     11 C         143.1368  139.0424  157.2511 C.ar    1  UNL1        0.2266
     12 N         144.2692  139.7005  157.9825 N.ar    1  UNL1       -0.1117
     13 N         143.8843  139.8129  159.4279 N.ar    1  UNL1       -0.1117
     14 C         142.5142  139.2242  159.5899 C.ar    1  UNL1        0.2257
     15 O         142.0522  138.7481  158.2446 O.2     1  UNL1       -0.4233
     16 C         140.2128  140.9003  166.0936 C.3     1  UNL1        0.0954
     17 C         140.1057  141.3899  167.5075 C.ar    1  UNL1       -0.0045
     18 C         139.6017  140.4730  168.5824 C.ar    1  UNL1       -0.0027
     19 C         139.4945  140.9626  169.9963 C.ar    1  UNL1       -0.0003
     20 C         139.8913  142.3690  170.3351 C.ar    1  UNL1       -0.0000
     21 C         140.3953  143.2857  169.2601 C.ar    1  UNL1       -0.0003
     22 C         140.5024  142.7962  167.8463 C.ar    1  UNL1       -0.0027
     23 N         141.4279  141.2270  165.2769 N.am    1  UNL1       -0.3022
     24 C         142.7238  140.5208  165.5449 C.2     1  UNL1        0.2222
     25 O         142.8048  139.4880  166.6297 O.2     1  UNL1       -0.2751
     26 H         141.3748  141.9049  164.5650 H       1  UNL1        0.1497
     27 C         143.9388  140.8475  164.7282 C.3     1  UNL1        0.0765
     28 C         144.8849  140.0589  163.8721 C.3     1  UNL1        0.0091
     29 C         145.6570  141.3096  163.5731 C.3     1  UNL1        0.0010
     30 C         144.7109  142.0983  164.4292 C.3     1  UNL1        0.0091
@<TRIPOS>BOND
     1    10    11    1
     2    11    12   ar
     3    12    13   ar
     4    13    14   ar
     5    14     4    1
     6     4     5    1
     7     5     6    1
     8     6     7    1
     9     7     2    1
    10     2     3    1
    11     2     1    1
    12    16     1    1
    13    16    23    1
    14    23    24   am
    15    24    25    2
    16    24    27    1
    17    27    28    1
    18    28    29    1
    19    29    30    1
    20    16    17    1
    21    17    18   ar
    22    18    19   ar
    23    19    20   ar
    24    20    21   ar
    25    21    22   ar
    26     7     8    1
    27     8     9    1
    28    14    15   ar
    29    15    11   ar
    30     9     4    1
    31    30    27    1
    32    22    17   ar
    33    23    26    1
@<TRIPOS>MOLECULE
*****
 30 33 0 0 0
SMALL
GASTEIGER

@<TRIPOS>ATOM
      1 C         140.5037  139.6283  167.0179 C.3     1  UNL1        0.0401
      2 C         139.3820  139.8394  166.0446 C.3     1  UNL1        0.0595
      3 C         138.1502  138.9871  166.1235 C.3     1  UNL1        0.0174
      4 C         139.7124  143.0297  162.8882 C.3     1  UNL1        0.0810
      5 C         140.2652  141.6594  162.6303 C.3     1  UNL1        0.0266
      6 C         140.1551  140.5960  163.6824 C.3     1  UNL1        0.0725
      7 N         139.4921  140.9029  164.9925 N.3     1  UNL1       -0.2739
      8 C         138.9392  142.2732  165.2504 C.3     1  UNL1        0.0725
      9 C         139.0493  143.3366  164.1983 C.3     1  UNL1        0.0266
     10 C         140.9782  145.5858  158.4446 C.3     1  UNL1        0.0967
     11 C         140.4043  145.2681  159.7936 C.ar    1  UNL1        0.2266
     12 N         139.5795  146.1914  160.6406 N.ar    1  UNL1       -0.1117
     13 N         139.2199  145.4653  161.9029 N.ar    1  UNL1       -0.1117
     14 C         139.8225  144.0932  161.8361 C.ar    1  UNL1        0.2257
     15 O         140.5544  143.9714  160.5325 O.2     1  UNL1       -0.4233
     16 C         141.6300  140.6163  167.0900 C.3     1  UNL1        0.0954
     17 C         141.6741  141.6235  168.2007 C.ar    1  UNL1       -0.0045
     18 C         142.9092  141.7595  169.0412 C.ar    1  UNL1       -0.0027
     19 C         142.9534  142.7667  170.1518 C.ar    1  UNL1       -0.0003
     20 C         141.7625  143.6378  170.4221 C.ar    1  UNL1       -0.0000
     21 C         140.5275  143.5018  169.5817 C.ar    1  UNL1       -0.0003
     22 C         140.4834  142.4947  168.4710 C.ar    1  UNL1       -0.0027
     23 N         142.7122  140.5972  166.0514 N.am    1  UNL1       -0.3022
     24 C         143.0351  141.8435  165.2818 C.2     1  UNL1        0.2222
     25 O         142.2759  143.1089  165.5506 O.2     1  UNL1       -0.2751
     26 H         143.2104  139.7667  165.8750 H       1  UNL1        0.1497
     27 C         144.1173  141.8243  164.2433 C.3     1  UNL1        0.0765
     28 C         144.5315  142.7355  163.1260 C.3     1  UNL1        0.0091
     29 C         145.6477  141.7972  162.7745 C.3     1  UNL1        0.0010
     30 C         145.2335  140.8860  163.8917 C.3     1  UNL1        0.0091
@<TRIPOS>BOND
     1    10    11    1
     2    11    12   ar
     3    12    13   ar
     4    13    14   ar
     5    14     4    1
     6     4     5    1
     7     5     6    1
     8     6     7    1
     9     7     2    1
    10     2     3    1
    11     2     1    1
    12    16     1    1
    13    16    23    1
    14    23    24   am
    15    24    25    2
    16    24    27    1
    17    27    28    1
    18    28    29    1
    19    29    30    1
    20    16    17    1
    21    17    18   ar
    22    18    19   ar
    23    19    20   ar
    24    20    21   ar
    25    21    22   ar
    26     7     8    1
    27     8     9    1
    28    14    15   ar
    29    15    11   ar
    30     9     4    1
    31    30    27    1
    32    22    17   ar
    33    23    26    1
@<TRIPOS>MOLECULE
*****
 30 33 0 0 0
SMALL
GASTEIGER

@<TRIPOS>ATOM
      1 C         139.1065  142.0485  164.7819 C.3     1  UNL1        0.0401
      2 C         138.8918  143.4712  164.3576 C.3     1  UNL1        0.0595
      3 C         138.2056  144.4337  165.2809 C.3     1  UNL1        0.0174
      4 C         140.3067  144.8513  160.3149 C.3     1  UNL1        0.0810
      5 C         140.0927  143.3898  160.5759 C.3     1  UNL1        0.0266
      6 C         139.6211  142.9298  161.9235 C.3     1  UNL1        0.0725
      7 N         139.3635  143.9313  163.0100 N.3     1  UNL1       -0.2739
      8 C         139.5774  145.3928  162.7490 C.3     1  UNL1        0.0725
      9 C         140.0491  145.8528  161.4015 C.3     1  UNL1        0.0266
     10 C         140.3563  146.3110  155.2407 C.3     1  UNL1        0.0967
     11 C         140.8011  145.9823  156.6350 C.ar    1  UNL1        0.2266
     12 N         142.2072  146.0563  157.1524 N.ar    1  UNL1       -0.1117
     13 N         142.1931  145.6416  158.5938 N.ar    1  UNL1       -0.1117
     14 C         140.7783  145.3113  158.9673 C.ar    1  UNL1        0.2257
     15 O         139.9181  145.5219  157.7567 O.2     1  UNL1       -0.4233
     16 C         140.2712  141.6948  165.6583 C.3     1  UNL1        0.0954
     17 C         140.1075  141.6689  167.1491 C.ar    1  UNL1       -0.0045
     18 C         140.4344  142.8873  167.9608 C.ar    1  UNL1       -0.0027
     19 C         140.2707  142.8613  169.4516 C.ar    1  UNL1       -0.0003
     20 C         139.7801  141.6170  170.1307 C.ar    1  UNL1       -0.0000
     21 C         139.4533  140.3987  169.3190 C.ar    1  UNL1       -0.0003
     22 C         139.6170  140.4247  167.8282 C.ar    1  UNL1       -0.0027
     23 N         141.5999  141.3670  165.0438 N.am    1  UNL1       -0.3022
     24 C         142.5418  142.4699  164.6612 C.2     1  UNL1        0.2222
     25 O         142.1552  143.9005  164.8929 O.2     1  UNL1       -0.2751
     26 H         141.8536  140.4280  164.8918 H       1  UNL1        0.1497
     27 C         143.8703  142.1420  164.0468 C.3     1  UNL1        0.0765
     28 C         144.7389  142.7725  162.9988 C.3     1  UNL1        0.0091
     29 C         145.7491  141.6784  163.1779 C.3     1  UNL1        0.0010
     30 C         144.8806  141.0479  164.2258 C.3     1  UNL1        0.0091
@<TRIPOS>BOND
     1    10    11    1
     2    11    12   ar
     3    12    13   ar
     4    13    14   ar
     5    14     4    1
     6     4     5    1
     7     5     6    1
     8     6     7    1
     9     7     2    1
    10     2     3    1
    11     2     1    1
    12    16     1    1
    13    16    23    1
    14    23    24   am
    15    24    25    2
    16    24    27    1
    17    27    28    1
    18    28    29    1
    19    29    30    1
    20    16    17    1
    21    17    18   ar
    22    18    19   ar
    23    19    20   ar
    24    20    21   ar
    25    21    22   ar
    26     7     8    1
    27     8     9    1
    28    14    15   ar
    29    15    11   ar
    30     9     4    1
    31    30    27    1
    32    22    17   ar
    33    23    26    1
@<TRIPOS>MOLECULE
*****
 30 33 0 0 0
SMALL
GASTEIGER

@<TRIPOS>ATOM
      1 C         141.6558  138.9094  165.7100 C.3     1  UNL1        0.0401
      2 C         141.3568  138.7130  164.2533 C.3     1  UNL1        0.0595
      3 C         141.1953  137.3279  163.7009 C.3     1  UNL1        0.0174
      4 C         140.9446  142.2795  161.5403 C.3     1  UNL1        0.0810
      5 C         142.2092  142.0725  162.3201 C.3     1  UNL1        0.0266
      6 C         142.3466  140.8837  163.2244 C.3     1  UNL1        0.0725
      7 N         141.2194  139.9019  163.3489 N.3     1  UNL1       -0.2739
      8 C         139.9548  140.1089  162.5692 C.3     1  UNL1        0.0725
      9 C         139.8174  141.2977  161.6649 C.3     1  UNL1        0.0266
     10 C         141.8732  145.8486  157.7614 C.3     1  UNL1        0.0967
     11 C         141.2340  145.1089  158.8990 C.ar    1  UNL1        0.2266
     12 N         139.9572  145.4867  159.5898 N.ar    1  UNL1       -0.1117
     13 N         139.6934  144.4728  160.6633 N.ar    1  UNL1       -0.1117
     14 C         140.8072  143.4684  160.6360 C.ar    1  UNL1        0.2257
     15 O         141.7593  143.8615  159.5456 O.2     1  UNL1       -0.4233
     16 C         140.8727  139.9092  166.5082 C.3     1  UNL1        0.0954
     17 C         141.1046  140.0374  167.9846 C.ar    1  UNL1       -0.0045
     18 C         142.5023  140.0171  168.5289 C.ar    1  UNL1       -0.0027
     19 C         142.7342  140.1452  170.0053 C.ar    1  UNL1       -0.0003
     20 C         141.5684  140.2936  170.9375 C.ar    1  UNL1       -0.0000
     21 C         140.1708  140.3139  170.3932 C.ar    1  UNL1       -0.0003
     22 C         139.9389  140.1858  168.9168 C.ar    1  UNL1       -0.0027
     23 N         139.8578  140.7810  165.8300 N.am    1  UNL1       -0.3022
     24 C         140.1393  142.2400  165.6252 C.2     1  UNL1        0.2222
     25 O         141.4358  142.8274  166.0987 O.2     1  UNL1       -0.2751
     26 H         139.0068  140.3955  165.5193 H       1  UNL1        0.1497
     27 C         139.1243  143.1117  164.9470 C.3     1  UNL1        0.0765
     28 C         139.0551  144.5613  164.5678 C.3     1  UNL1        0.0091
     29 C         137.6889  144.3444  163.9879 C.3     1  UNL1        0.0010
     30 C         137.7581  142.8948  164.3671 C.3     1  UNL1        0.0091
@<TRIPOS>BOND
     1    10    11    1
     2    11    12   ar
     3    12    13   ar
     4    13    14   ar
     5    14     4    1
     6     4     5    1
     7     5     6    1
     8     6     7    1
     9     7     2    1
    10     2     3    1
    11     2     1    1
    12    16     1    1
    13    16    23    1
    14    23    24   am
    15    24    25    2
    16    24    27    1
    17    27    28    1
    18    28    29    1
    19    29    30    1
    20    16    17    1
    21    17    18   ar
    22    18    19   ar
    23    19    20   ar
    24    20    21   ar
    25    21    22   ar
    26     7     8    1
    27     8     9    1
    28    14    15   ar
    29    15    11   ar
    30     9     4    1
    31    30    27    1
    32    22    17   ar
    33    23    26    1
@<TRIPOS>MOLECULE
*****
 30 33 0 0 0
SMALL
GASTEIGER

@<TRIPOS>ATOM
      1 C         144.4299  139.9892  164.6464 C.3     1  UNL1        0.0401
      2 C         144.7403  140.5297  163.2821 C.3     1  UNL1        0.0595
      3 C         145.6517  141.7117  163.1332 C.3     1  UNL1        0.0174
      4 C         142.9370  138.6053  159.6359 C.3     1  UNL1        0.0810
      5 C         143.4999  137.7519  160.7335 C.3     1  UNL1        0.0266
      6 C         144.1009  138.3934  161.9489 C.3     1  UNL1        0.0725
      7 N         144.1392  139.8883  162.0666 N.3     1  UNL1       -0.2739
      8 C         143.5763  140.7417  160.9690 C.3     1  UNL1        0.0725
      9 C         142.9753  140.1002  159.7536 C.3     1  UNL1        0.0266
     10 C         139.4826  137.1326  155.9238 C.3     1  UNL1        0.0967
     11 C         140.7482  137.2869  156.7142 C.ar    1  UNL1        0.2266
     12 N         142.0739  136.6666  156.3859 N.ar    1  UNL1       -0.1117
     13 N         143.0552  137.0850  157.4404 N.ar    1  UNL1       -0.1117
     14 C         142.3359  137.9639  158.4204 C.ar    1  UNL1        0.2257
     15 O         140.9101  138.0886  157.9715 O.2     1  UNL1       -0.4233
     16 C         143.0512  140.1409  165.2175 C.3     1  UNL1        0.0954
     17 C         142.8731  140.4728  166.6695 C.ar    1  UNL1       -0.0045
     18 C         142.9217  141.9016  167.1236 C.ar    1  UNL1       -0.0027
     19 C         142.7436  142.2335  168.5756 C.ar    1  UNL1       -0.0003
     20 C         142.5170  141.1366  169.5733 C.ar    1  UNL1       -0.0000
     21 C         142.4685  139.7079  169.1191 C.ar    1  UNL1       -0.0003
     22 C         142.6466  139.3760  167.6672 C.ar    1  UNL1       -0.0027
     23 N         141.8505  139.9608  164.3366 N.am    1  UNL1       -0.3022
     24 C         141.2764  138.5918  164.1218 C.2     1  UNL1        0.2222
     25 O         141.9030  137.4028  164.7879 O.2     1  UNL1       -0.2751
     26 H         141.4392  140.7412  163.8994 H       1  UNL1        0.1497
     27 C         140.0758  138.4118  163.2410 C.3     1  UNL1        0.0765
     28 C         138.5914  138.4939  163.4411 C.3     1  UNL1        0.0091
     29 C         138.3777  138.1572  161.9952 C.3     1  UNL1        0.0010
     30 C         139.8620  138.0751  161.7950 C.3     1  UNL1        0.0091
@<TRIPOS>BOND
     1    10    11    1
     2    11    12   ar
     3    12    13   ar
     4    13    14   ar
     5    14     4    1
     6     4     5    1
     7     5     6    1
     8     6     7    1
     9     7     2    1
    10     2     3    1
    11     2     1    1
    12    16     1    1
    13    16    23    1
    14    23    24   am
    15    24    25    2
    16    24    27    1
    17    27    28    1
    18    28    29    1
    19    29    30    1
    20    16    17    1
    21    17    18   ar
    22    18    19   ar
    23    19    20   ar
    24    20    21   ar
    25    21    22   ar
    26     7     8    1
    27     8     9    1
    28    14    15   ar
    29    15    11   ar
    30     9     4    1
    31    30    27    1
    32    22    17   ar
    33    23    26    1
@<TRIPOS>MOLECULE
*****
 30 33 0 0 0
SMALL
GASTEIGER

@<TRIPOS>ATOM
      1 C         138.2455  142.3049  164.5158 C.3     1  UNL1        0.0401
      2 C         138.6771  143.7219  164.2793 C.3     1  UNL1        0.0595
      3 C         138.5950  144.7262  165.3903 C.3     1  UNL1        0.0174
      4 C         140.2183  144.9595  160.2367 C.3     1  UNL1        0.0810
      5 C         139.6019  143.6046  160.4217 C.3     1  UNL1        0.0266
      6 C         139.0882  143.1921  161.7692 C.3     1  UNL1        0.0725
      7 N         139.1909  144.1344  162.9317 N.3     1  UNL1       -0.2739
      8 C         139.8073  145.4893  162.7467 C.3     1  UNL1        0.0725
      9 C         140.3210  145.9018  161.3992 C.3     1  UNL1        0.0266
     10 C         140.4142  146.6700  155.2450 C.3     1  UNL1        0.0967
     11 C         140.8221  146.1583  156.5947 C.ar    1  UNL1        0.2266
     12 N         142.2234  145.8555  157.0363 N.ar    1  UNL1       -0.1117
     13 N         142.1677  145.3696  158.4543 N.ar    1  UNL1       -0.1117
     14 C         140.7321  145.3720  158.8891 C.ar    1  UNL1        0.2257
     15 O         139.9005  145.8594  157.7398 O.2     1  UNL1       -0.4233
     16 C         139.2736  141.2247  164.6770 C.3     1  UNL1        0.0954
     17 C         138.8713  139.8788  165.2031 C.ar    1  UNL1       -0.0045
     18 C         139.3022  138.6338  164.4859 C.ar    1  UNL1       -0.0027
     19 C         138.8999  137.2879  165.0120 C.ar    1  UNL1       -0.0003
     20 C         138.0667  137.1871  166.2553 C.ar    1  UNL1       -0.0000
     21 C         137.6359  138.4321  166.9724 C.ar    1  UNL1       -0.0003
     22 C         138.0382  139.7780  166.4463 C.ar    1  UNL1       -0.0027
     23 N         140.7042  141.4903  164.3120 N.am    1  UNL1       -0.3022
     24 C         141.6634  141.9887  165.3520 C.2     1  UNL1        0.2222
     25 O         141.1921  142.2214  166.7569 O.2     1  UNL1       -0.2751
     26 H         141.0135  141.3376  163.3899 H       1  UNL1        0.1497
     27 C         143.0938  142.2542  164.9870 C.3     1  UNL1        0.0765
     28 C         144.2133  141.4338  164.4180 C.3     1  UNL1        0.0091
     29 C         145.1168  142.6298  164.4709 C.3     1  UNL1        0.0010
     30 C         143.9974  143.4504  165.0399 C.3     1  UNL1        0.0091
@<TRIPOS>BOND
     1    10    11    1
     2    11    12   ar
     3    12    13   ar
     4    13    14   ar
     5    14     4    1
     6     4     5    1
     7     5     6    1
     8     6     7    1
     9     7     2    1
    10     2     3    1
    11     2     1    1
    12    16     1    1
    13    16    23    1
    14    23    24   am
    15    24    25    2
    16    24    27    1
    17    27    28    1
    18    28    29    1
    19    29    30    1
    20    16    17    1
    21    17    18   ar
    22    18    19   ar
    23    19    20   ar
    24    20    21   ar
    25    21    22   ar
    26     7     8    1
    27     8     9    1
    28    14    15   ar
    29    15    11   ar
    30     9     4    1
    31    30    27    1
    32    22    17   ar
    33    23    26    1
