@<TRIPOS>MOLECULE
*****
 26 28 0 0 0
SMALL
GASTEIGER

@<TRIPOS>ATOM
      1 N         141.3272  142.1878  167.0460 N.ar    1  UNL1       -0.3241
      2 C         141.2341  142.6669  168.4643 C.ar    1  UNL1        0.0802
      3 C         140.3540  141.9473  169.4429 C.ar    1  UNL1        0.0701
      4 C         139.5670  140.7485  169.0031 C.ar    1  UNL1        0.1996
      5 O         138.6869  140.0289  169.9816 O.2     1  UNL1       -0.2864
      6 C         139.6600  140.2694  167.5847 C.ar    1  UNL1        0.0593
      7 C         138.8729  139.0706  167.1449 C.ar    1  UNL1        0.0357
      8 C         138.9659  138.5915  165.7265 C.ar    1  UNL1        0.1557
      9 F         138.1789  137.3927  165.2867 F       1  UNL1       -0.2028
     10 C         139.8460  139.3111  164.7480 C.ar    1  UNL1        0.1050
     11 C         140.6331  140.5099  165.1878 C.ar    1  UNL1        0.1712
     12 F         141.5132  141.2295  164.2092 F       1  UNL1       -0.2013
     13 C         140.5401  140.9890  166.6062 C.ar    1  UNL1        0.0922
     14 N         139.9391  138.8319  163.3296 N.pl3   1  UNL1       -0.3012
     15 C         138.6969  138.7023  162.4988 C.3     1  UNL1        0.1080
     16 C         138.7898  138.2231  161.0805 C.3     1  UNL1        0.0903
     17 N         140.1250  137.8736  160.4929 N.3     1  UNL1       -0.2957
     18 C         141.3671  138.0033  161.3237 C.3     1  UNL1        0.0741
     19 C         142.7023  137.6537  160.7361 C.3     1  UNL1        0.0189
     20 C         141.2742  138.4824  162.7420 C.3     1  UNL1        0.1066
     21 H         140.2530  138.4715  159.6765 H       1  UNL1        0.1233
     22 C         140.2610  142.4265  170.8613 C.2     1  UNL1        0.0774
     23 O         139.1284  143.3165  171.2795 O.co2   1  UNL1       -0.5444
     24 O         141.3007  142.0156  171.8614 O.co2   1  UNL1       -0.5444
     25 C         143.6958  142.7329  166.1282 C.3     1  UNL1        0.0265
     26 C         142.2073  142.9074  166.0674 C.3     1  UNL1        0.1062
@<TRIPOS>UNITY_ATOM_ATTR
23 1
charge -1
@<TRIPOS>BOND
     1    25    26    1
     2    26     1    1
     3     1     2   ar
     4     2     3   ar
     5     3    22    1
     6    22    23   ar
     7    22    24   ar
     8     3     4   ar
     9     4     5    2
    10     4     6   ar
    11     6     7   ar
    12     7     8   ar
    13     8     9    1
    14     8    10   ar
    15    10    14    1
    16    14    15    1
    17    15    16    1
    18    16    17    1
    19    17    18    1
    20    18    19    1
    21    18    20    1
    22    10    11   ar
    23    11    12    1
    24    11    13   ar
    25    13     1   ar
    26    13     6   ar
    27    20    14    1
    28    17    21    1
@<TRIPOS>MOLECULE
*****
 26 28 0 0 0
SMALL
GASTEIGER

@<TRIPOS>ATOM
      1 N         139.9943  140.0835  167.1689 N.ar    1  UNL1       -0.3241
      2 C         139.6317  140.5209  168.5571 C.ar    1  UNL1        0.0802
      3 C         140.5118  141.4873  169.2930 C.ar    1  UNL1        0.0701
      4 C         141.7545  142.0163  168.6406 C.ar    1  UNL1        0.1996
      5 O         142.6346  142.9827  169.3764 O.2     1  UNL1       -0.2864
      6 C         142.1172  141.5789  167.2524 C.ar    1  UNL1        0.0593
      7 C         143.3600  142.1080  166.5999 C.ar    1  UNL1        0.0357
      8 C         143.7226  141.6706  165.2118 C.ar    1  UNL1        0.1557
      9 F         144.9655  142.1996  164.5593 F       1  UNL1       -0.2028
     10 C         142.8425  140.7042  164.4759 C.ar    1  UNL1        0.1050
     11 C         141.5998  140.1751  165.1283 C.ar    1  UNL1        0.1712
     12 F         140.7197  139.2087  164.3925 F       1  UNL1       -0.2013
     13 C         141.2371  140.6125  166.5166 C.ar    1  UNL1        0.0922
     14 N         143.2052  140.2668  163.0877 N.pl3   1  UNL1       -0.3012
     15 C         143.6362  138.8523  162.8355 C.3     1  UNL1        0.1080
     16 C         143.9989  138.4149  161.4473 C.3     1  UNL1        0.0903
     17 N         143.9306  139.3920  160.3113 N.3     1  UNL1       -0.2957
     18 C         143.4996  140.8065  160.5634 C.3     1  UNL1        0.0741
     19 C         143.4314  141.7835  159.4273 C.3     1  UNL1        0.0189
     20 C         143.1369  141.2439  161.9516 C.3     1  UNL1        0.1066
     21 H         143.2809  139.0037  159.6276 H       1  UNL1        0.1233
     22 C         140.1491  141.9247  170.6812 C.2     1  UNL1        0.0774
     23 O         140.7067  141.1950  171.8672 O.co2   1  UNL1       -0.5444
     24 O         139.2287  143.0917  170.8834 O.co2   1  UNL1       -0.5444
     25 C         137.8020  138.6967  167.0258 C.3     1  UNL1        0.0265
     26 C         139.1142  139.1171  166.4331 C.3     1  UNL1        0.1062
@<TRIPOS>UNITY_ATOM_ATTR
23 1
charge -1
@<TRIPOS>BOND
     1    25    26    1
     2    26     1    1
     3     1     2   ar
     4     2     3   ar
     5     3    22    1
     6    22    23   ar
     7    22    24   ar
     8     3     4   ar
     9     4     5    2
    10     4     6   ar
    11     6     7   ar
    12     7     8   ar
    13     8     9    1
    14     8    10   ar
    15    10    14    1
    16    14    15    1
    17    15    16    1
    18    16    17    1
    19    17    18    1
    20    18    19    1
    21    18    20    1
    22    10    11   ar
    23    11    12    1
    24    11    13   ar
    25    13     1   ar
    26    13     6   ar
    27    20    14    1
    28    17    21    1
@<TRIPOS>MOLECULE
*****
 26 28 0 0 0
SMALL
GASTEIGER

@<TRIPOS>ATOM
      1 N         141.6871  140.7118  166.7592 N.ar    1  UNL1       -0.3241
      2 C         141.2162  140.9407  168.1648 C.ar    1  UNL1        0.0802
      3 C         139.9205  140.3438  168.6283 C.ar    1  UNL1        0.0701
      4 C         139.0956  139.5181  167.6862 C.ar    1  UNL1        0.1996
      5 O         137.7999  138.9213  168.1496 O.2     1  UNL1       -0.2864
      6 C         139.5665  139.2892  166.2805 C.ar    1  UNL1        0.0593
      7 C         138.7416  138.4635  165.3383 C.ar    1  UNL1        0.0357
      8 C         139.2124  138.2346  163.9327 C.ar    1  UNL1        0.1557
      9 F         138.3875  137.4088  162.9904 F       1  UNL1       -0.2028
     10 C         140.5082  138.8314  163.4692 C.ar    1  UNL1        0.1050
     11 C         141.3331  139.6572  164.4113 C.ar    1  UNL1        0.1712
     12 F         142.6288  140.2540  163.9478 F       1  UNL1       -0.2013
     13 C         140.8622  139.8861  165.8170 C.ar    1  UNL1        0.0922
     14 N         140.9790  138.6025  162.0635 N.pl3   1  UNL1       -0.3012
     15 C         142.2740  137.8881  161.8133 C.3     1  UNL1        0.1080
     16 C         142.7449  137.6592  160.4076 C.3     1  UNL1        0.0903
     17 N         141.9207  138.1447  159.2522 N.3     1  UNL1       -0.2957
     18 C         140.6258  138.8591  159.5024 C.3     1  UNL1        0.0741
     19 C         139.8016  139.3446  158.3469 C.3     1  UNL1        0.0189
     20 C         140.1549  139.0880  160.9080 C.3     1  UNL1        0.1066
     21 H         141.7009  137.3271  158.6833 H       1  UNL1        0.1233
     22 C         139.4496  140.5728  170.0340 C.2     1  UNL1        0.0774
     23 O         139.0971  141.9573  170.4908 O.co2   1  UNL1       -0.5444
     24 O         139.3313  139.4171  170.9829 O.co2   1  UNL1       -0.5444
     25 C         143.0574  142.7677  165.9557 C.3     1  UNL1        0.0265
     26 C         142.9828  141.3086  166.2957 C.3     1  UNL1        0.1062
@<TRIPOS>UNITY_ATOM_ATTR
23 1
charge -1
@<TRIPOS>BOND
     1    25    26    1
     2    26     1    1
     3     1     2   ar
     4     2     3   ar
     5     3    22    1
     6    22    23   ar
     7    22    24   ar
     8     3     4   ar
     9     4     5    2
    10     4     6   ar
    11     6     7   ar
    12     7     8   ar
    13     8     9    1
    14     8    10   ar
    15    10    14    1
    16    14    15    1
    17    15    16    1
    18    16    17    1
    19    17    18    1
    20    18    19    1
    21    18    20    1
    22    10    11   ar
    23    11    12    1
    24    11    13   ar
    25    13     1   ar
    26    13     6   ar
    27    20    14    1
    28    17    21    1
@<TRIPOS>MOLECULE
*****
 26 28 0 0 0
SMALL
GASTEIGER

@<TRIPOS>ATOM
      1 N         139.9080  140.6140  166.9529 N.ar    1  UNL1       -0.3241
      2 C         139.6163  140.3192  168.3944 C.ar    1  UNL1        0.0802
      3 C         140.5748  140.7628  169.4595 C.ar    1  UNL1        0.0701
      4 C         141.8251  141.5011  169.0832 C.ar    1  UNL1        0.1996
      5 O         142.7836  141.9446  170.1483 O.2     1  UNL1       -0.2864
      6 C         142.1168  141.7958  167.6417 C.ar    1  UNL1        0.0593
      7 C         143.3672  142.5342  167.2653 C.ar    1  UNL1        0.0357
      8 C         143.6589  142.8289  165.8238 C.ar    1  UNL1        0.1557
      9 F         144.9093  143.5672  165.4474 F       1  UNL1       -0.2028
     10 C         142.7004  142.3854  164.7586 C.ar    1  UNL1        0.1050
     11 C         141.4501  141.6471  165.1350 C.ar    1  UNL1        0.1712
     12 F         140.4916  141.2035  164.0698 F       1  UNL1       -0.2013
     13 C         141.1583  141.3523  166.5765 C.ar    1  UNL1        0.0922
     14 N         142.9922  142.6802  163.3171 N.pl3   1  UNL1       -0.3012
     15 C         144.1916  142.0697  162.6546 C.3     1  UNL1        0.1080
     16 C         144.4835  142.3645  161.2132 C.3     1  UNL1        0.0903
     17 N         143.5759  143.2697  160.4341 N.3     1  UNL1       -0.2957
     18 C         142.3765  143.8801  161.0966 C.3     1  UNL1        0.0741
     19 C         141.4690  144.7853  160.3174 C.3     1  UNL1        0.0189
     20 C         142.0847  143.5854  162.5380 C.3     1  UNL1        0.1066
     21 H         143.2309  142.7291  159.6409 H       1  UNL1        0.1233
     22 C         140.2830  140.4680  170.9011 C.2     1  UNL1        0.0774
     23 O         139.5230  139.2299  171.2745 O.co2   1  UNL1       -0.5444
     24 O         140.7512  141.4113  171.9692 O.co2   1  UNL1       -0.5444
     25 C         138.0232  139.0190  166.1446 C.3     1  UNL1        0.0265
     26 C         138.9495  140.1704  165.8877 C.3     1  UNL1        0.1062
@<TRIPOS>UNITY_ATOM_ATTR
23 1
charge -1
@<TRIPOS>BOND
     1    25    26    1
     2    26     1    1
     3     1     2   ar
     4     2     3   ar
     5     3    22    1
     6    22    23   ar
     7    22    24   ar
     8     3     4   ar
     9     4     5    2
    10     4     6   ar
    11     6     7   ar
    12     7     8   ar
    13     8     9    1
    14     8    10   ar
    15    10    14    1
    16    14    15    1
    17    15    16    1
    18    16    17    1
    19    17    18    1
    20    18    19    1
    21    18    20    1
    22    10    11   ar
    23    11    12    1
    24    11    13   ar
    25    13     1   ar
    26    13     6   ar
    27    20    14    1
    28    17    21    1
@<TRIPOS>MOLECULE
*****
 26 28 0 0 0
SMALL
GASTEIGER

@<TRIPOS>ATOM
      1 N         142.3323  141.0939  166.7907 N.ar    1  UNL1       -0.3241
      2 C         142.7022  141.2862  168.2315 C.ar    1  UNL1        0.0802
      3 C         141.9482  142.2717  169.0744 C.ar    1  UNL1        0.0701
      4 C         140.8242  143.0647  168.4763 C.ar    1  UNL1        0.1996
      5 O         140.0702  144.0501  169.3192 O.2     1  UNL1       -0.2864
      6 C         140.4543  142.8724  167.0355 C.ar    1  UNL1        0.0593
      7 C         139.3303  143.6655  166.4374 C.ar    1  UNL1        0.0357
      8 C         138.9604  143.4731  164.9965 C.ar    1  UNL1        0.1557
      9 F         137.8364  144.2662  164.3984 F       1  UNL1       -0.2028
     10 C         139.7145  142.4877  164.1537 C.ar    1  UNL1        0.1050
     11 C         140.8384  141.6947  164.7517 C.ar    1  UNL1        0.1712
     12 F         141.5925  140.7093  163.9089 F       1  UNL1       -0.2013
     13 C         141.2084  141.8870  166.1926 C.ar    1  UNL1        0.0922
     14 N         139.3445  142.2954  162.7127 N.pl3   1  UNL1       -0.3012
     15 C         139.7700  143.3049  161.6880 C.3     1  UNL1        0.1080
     16 C         139.4000  143.1126  160.2472 C.3     1  UNL1        0.0903
     17 N         138.6047  141.9109  159.8310 N.3     1  UNL1       -0.2957
     18 C         138.1792  140.9015  160.8557 C.3     1  UNL1        0.0741
     19 C         137.3838  139.6997  160.4395 C.3     1  UNL1        0.0189
     20 C         138.5491  141.0937  162.2966 C.3     1  UNL1        0.1066
     21 H         139.1653  141.4114  159.1407 H       1  UNL1        0.1233
     22 C         142.3181  142.4640  170.5153 C.2     1  UNL1        0.0774
     23 O         143.1256  143.6583  170.9293 O.co2   1  UNL1       -0.5444
     24 O         141.8806  141.4619  171.5421 O.co2   1  UNL1       -0.5444
     25 C         143.1916  138.6764  166.3815 C.3     1  UNL1        0.0265
     26 C         143.0864  140.1085  165.9478 C.3     1  UNL1        0.1062
@<TRIPOS>UNITY_ATOM_ATTR
23 1
charge -1
@<TRIPOS>BOND
     1    25    26    1
     2    26     1    1
     3     1     2   ar
     4     2     3   ar
     5     3    22    1
     6    22    23   ar
     7    22    24   ar
     8     3     4   ar
     9     4     5    2
    10     4     6   ar
    11     6     7   ar
    12     7     8   ar
    13     8     9    1
    14     8    10   ar
    15    10    14    1
    16    14    15    1
    17    15    16    1
    18    16    17    1
    19    17    18    1
    20    18    19    1
    21    18    20    1
    22    10    11   ar
    23    11    12    1
    24    11    13   ar
    25    13     1   ar
    26    13     6   ar
    27    20    14    1
    28    17    21    1
@<TRIPOS>MOLECULE
*****
 26 28 0 0 0
SMALL
GASTEIGER

@<TRIPOS>ATOM
      1 N         142.3098  140.1911  165.6905 N.ar    1  UNL1       -0.3241
      2 C         142.4853  139.6937  167.0947 C.ar    1  UNL1        0.0802
      3 C         141.8129  140.4045  168.2317 C.ar    1  UNL1        0.0701
      4 C         140.9650  141.6126  167.9645 C.ar    1  UNL1        0.1996
      5 O         140.2927  142.3234  169.1015 O.2     1  UNL1       -0.2864
      6 C         140.7895  142.1100  166.5603 C.ar    1  UNL1        0.0593
      7 C         139.9416  143.3182  166.2931 C.ar    1  UNL1        0.0357
      8 C         139.7661  143.8156  164.8889 C.ar    1  UNL1        0.1557
      9 F         138.9182  145.0238  164.6216 F       1  UNL1       -0.2028
     10 C         140.4384  143.1048  163.7519 C.ar    1  UNL1        0.1050
     11 C         141.2863  141.8967  164.0191 C.ar    1  UNL1        0.1712
     12 F         141.9587  141.1859  162.8821 F       1  UNL1       -0.2013
     13 C         141.4619  141.3992  165.4233 C.ar    1  UNL1        0.0922
     14 N         140.2629  143.6022  162.3477 N.pl3   1  UNL1       -0.3012
     15 C         140.8759  144.9066  161.9319 C.3     1  UNL1        0.1080
     16 C         140.7004  145.4040  160.5278 C.3     1  UNL1        0.0903
     17 N         139.9118  144.5971  159.5394 N.3     1  UNL1       -0.2957
     18 C         139.2988  143.2928  159.9551 C.3     1  UNL1        0.0741
     19 C         138.5102  142.4859  158.9666 C.3     1  UNL1        0.0189
     20 C         139.4743  142.7953  161.3593 C.3     1  UNL1        0.1066
     21 H         140.5373  144.3933  158.7599 H       1  UNL1        0.1233
     22 C         141.9885  139.9071  169.6360 C.2     1  UNL1        0.0774
     23 O         140.8280  139.2999  170.3671 O.co2   1  UNL1       -0.5444
     24 O         143.3245  140.0168  170.3089 O.co2   1  UNL1       -0.5444
     25 C         144.4733  139.5458  164.4050 C.3     1  UNL1        0.0265
     26 C         142.9821  139.4803  164.5536 C.3     1  UNL1        0.1062
@<TRIPOS>UNITY_ATOM_ATTR
23 1
charge -1
@<TRIPOS>BOND
     1    25    26    1
     2    26     1    1
     3     1     2   ar
     4     2     3   ar
     5     3    22    1
     6    22    23   ar
     7    22    24   ar
     8     3     4   ar
     9     4     5    2
    10     4     6   ar
    11     6     7   ar
    12     7     8   ar
    13     8     9    1
    14     8    10   ar
    15    10    14    1
    16    14    15    1
    17    15    16    1
    18    16    17    1
    19    17    18    1
    20    18    19    1
    21    18    20    1
    22    10    11   ar
    23    11    12    1
    24    11    13   ar
    25    13     1   ar
    26    13     6   ar
    27    20    14    1
    28    17    21    1
@<TRIPOS>MOLECULE
*****
 26 28 0 0 0
SMALL
GASTEIGER

@<TRIPOS>ATOM
      1 N         141.0247  141.6275  166.2977 N.ar    1  UNL1       -0.3241
      2 C         140.8088  141.4810  167.7748 C.ar    1  UNL1        0.0802
      3 C         139.7928  140.5058  168.2912 C.ar    1  UNL1        0.0701
      4 C         138.9926  139.6771  167.3305 C.ar    1  UNL1        0.1996
      5 O         137.9766  138.7019  167.8469 O.2     1  UNL1       -0.2864
      6 C         139.2085  139.8236  165.8534 C.ar    1  UNL1        0.0593
      7 C         138.4084  138.9949  164.8926 C.ar    1  UNL1        0.0357
      8 C         138.6242  139.1414  163.4155 C.ar    1  UNL1        0.1557
      9 F         137.8241  138.3127  162.4547 F       1  UNL1       -0.2028
     10 C         139.6403  140.1166  162.8991 C.ar    1  UNL1        0.1050
     11 C         140.4404  140.9453  163.8598 C.ar    1  UNL1        0.1712
     12 F         141.4564  141.9206  163.3435 F       1  UNL1       -0.2013
     13 C         140.2245  140.7988  165.3370 C.ar    1  UNL1        0.0922
     14 N         139.8561  140.2631  161.4220 N.pl3   1  UNL1       -0.3012
     15 C         140.6047  139.2065  160.6650 C.3     1  UNL1        0.1080
     16 C         140.8206  139.3529  159.1879 C.3     1  UNL1        0.0903
     17 N         140.2878  140.5560  158.4677 N.3     1  UNL1       -0.2957
     18 C         139.5392  141.6127  159.2247 C.3     1  UNL1        0.0741
     19 C         139.0065  142.8159  158.5045 C.3     1  UNL1        0.0189
     20 C         139.3234  141.4663  160.7018 C.3     1  UNL1        0.1066
     21 H         139.6581  140.2107  157.7435 H       1  UNL1        0.1233
     22 C         139.5769  140.3593  169.7684 C.2     1  UNL1        0.0774
     23 O         138.5041  141.1541  170.4521 O.co2   1  UNL1       -0.5444
     24 O         140.4339  139.4180  170.5619 O.co2   1  UNL1       -0.5444
     25 C         143.4952  142.4039  166.0891 C.3     1  UNL1        0.0265
     26 C         142.0407  142.6028  165.7813 C.3     1  UNL1        0.1062
@<TRIPOS>UNITY_ATOM_ATTR
23 1
charge -1
@<TRIPOS>BOND
     1    25    26    1
     2    26     1    1
     3     1     2   ar
     4     2     3   ar
     5     3    22    1
     6    22    23   ar
     7    22    24   ar
     8     3     4   ar
     9     4     5    2
    10     4     6   ar
    11     6     7   ar
    12     7     8   ar
    13     8     9    1
    14     8    10   ar
    15    10    14    1
    16    14    15    1
    17    15    16    1
    18    16    17    1
    19    17    18    1
    20    18    19    1
    21    18    20    1
    22    10    11   ar
    23    11    12    1
    24    11    13   ar
    25    13     1   ar
    26    13     6   ar
    27    20    14    1
    28    17    21    1
@<TRIPOS>MOLECULE
*****
 26 28 0 0 0
SMALL
GASTEIGER

@<TRIPOS>ATOM
      1 N         143.5506  140.3076  163.4308 N.ar    1  UNL1       -0.3241
      2 C         143.8326  140.0049  161.9890 C.ar    1  UNL1        0.0802
      3 C         142.6991  139.7443  161.0418 C.ar    1  UNL1        0.0701
      4 C         141.2836  139.7863  161.5364 C.ar    1  UNL1        0.1996
      5 O         140.1501  139.5257  160.5892 O.2     1  UNL1       -0.2864
      6 C         141.0017  140.0890  162.9782 C.ar    1  UNL1        0.0593
      7 C         139.5861  140.1310  163.4728 C.ar    1  UNL1        0.0357
      8 C         139.3042  140.4337  164.9146 C.ar    1  UNL1        0.1557
      9 F         137.8886  140.4757  165.4093 F       1  UNL1       -0.2028
     10 C         140.4377  140.6943  165.8619 C.ar    1  UNL1        0.1050
     11 C         141.8531  140.6523  165.3673 C.ar    1  UNL1        0.1712
     12 F         142.9866  140.9129  166.3145 F       1  UNL1       -0.2013
     13 C         142.1352  140.3496  163.9254 C.ar    1  UNL1        0.0922
     14 N         140.1556  140.9970  167.3037 N.pl3   1  UNL1       -0.3012
     15 C         139.5218  139.9563  168.1785 C.3     1  UNL1        0.1080
     16 C         139.2398  140.2589  169.6203 C.3     1  UNL1        0.0903
     17 N         139.5916  141.6022  170.1873 N.3     1  UNL1       -0.2957
     18 C         140.2254  142.6430  169.3126 C.3     1  UNL1        0.0741
     19 C         140.5772  143.9864  169.8797 C.3     1  UNL1        0.0189
     20 C         140.5074  142.3403  167.8708 C.3     1  UNL1        0.1066
     21 H         140.2354  141.4359  170.9608 H       1  UNL1        0.1233
     22 C         142.9811  139.4416  159.5999 C.2     1  UNL1        0.0774
     23 O         143.0801  140.5592  158.6044 O.co2   1  UNL1       -0.5444
     24 O         143.1640  138.0213  159.1536 O.co2   1  UNL1       -0.5444
     25 C         145.7040  141.6198  164.0559 C.3     1  UNL1        0.0265
     26 C         144.6841  140.5682  164.3781 C.3     1  UNL1        0.1062
@<TRIPOS>UNITY_ATOM_ATTR
23 1
charge -1
@<TRIPOS>BOND
     1    25    26    1
     2    26     1    1
     3     1     2   ar
     4     2     3   ar
     5     3    22    1
     6    22    23   ar
     7    22    24   ar
     8     3     4   ar
     9     4     5    2
    10     4     6   ar
    11     6     7   ar
    12     7     8   ar
    13     8     9    1
    14     8    10   ar
    15    10    14    1
    16    14    15    1
    17    15    16    1
    18    16    17    1
    19    17    18    1
    20    18    19    1
    21    18    20    1
    22    10    11   ar
    23    11    12    1
    24    11    13   ar
    25    13     1   ar
    26    13     6   ar
    27    20    14    1
    28    17    21    1
@<TRIPOS>MOLECULE
*****
 26 28 0 0 0
SMALL
GASTEIGER

@<TRIPOS>ATOM
      1 N         142.7463  141.9895  161.8574 N.ar    1  UNL1       -0.3241
      2 C         143.0906  142.7185  160.5925 C.ar    1  UNL1        0.0802
      3 C         142.0429  143.5227  159.8815 C.ar    1  UNL1        0.0701
      4 C         140.6510  143.5980  160.4354 C.ar    1  UNL1        0.1996
      5 O         139.6033  144.4022  159.7244 O.2     1  UNL1       -0.2864
      6 C         140.3067  142.8690  161.7003 C.ar    1  UNL1        0.0593
      7 C         138.9147  142.9442  162.2543 C.ar    1  UNL1        0.0357
      8 C         138.5705  142.2152  163.5192 C.ar    1  UNL1        0.1557
      9 F         137.1785  142.2904  164.0732 F       1  UNL1       -0.2028
     10 C         139.6182  141.4109  164.2302 C.ar    1  UNL1        0.1050
     11 C         141.0101  141.3357  163.6763 C.ar    1  UNL1        0.1712
     12 F         142.0578  140.5314  164.3873 F       1  UNL1       -0.2013
     13 C         141.3544  142.0647  162.4113 C.ar    1  UNL1        0.0922
     14 N         139.2739  140.6819  165.4952 N.pl3   1  UNL1       -0.3012
     15 C         138.2876  139.5522  165.4650 C.3     1  UNL1        0.1080
     16 C         137.9433  138.8231  166.7298 C.3     1  UNL1        0.0903
     17 N         138.5853  139.2239  168.0249 N.3     1  UNL1       -0.2957
     18 C         139.5715  140.3537  168.0551 C.3     1  UNL1        0.0741
     19 C         140.2135  140.7544  169.3503 C.3     1  UNL1        0.0189
     20 C         139.9159  141.0827  166.7902 C.3     1  UNL1        0.1066
     21 H         139.0703  138.4000  168.3805 H       1  UNL1        0.1233
     22 C         142.3872  144.2517  158.6166 C.2     1  UNL1        0.0774
     23 O         142.8664  143.4883  157.4176 O.co2   1  UNL1       -0.5444
     24 O         142.2522  145.7442  158.5506 O.co2   1  UNL1       -0.5444
     25 C         145.1736  141.7450  162.7511 C.3     1  UNL1        0.0265
     26 C         143.7940  141.1852  162.5684 C.3     1  UNL1        0.1062
@<TRIPOS>UNITY_ATOM_ATTR
23 1
charge -1
@<TRIPOS>BOND
     1    25    26    1
     2    26     1    1
     3     1     2   ar
     4     2     3   ar
     5     3    22    1
     6    22    23   ar
     7    22    24   ar
     8     3     4   ar
     9     4     5    2
    10     4     6   ar
    11     6     7   ar
    12     7     8   ar
    13     8     9    1
    14     8    10   ar
    15    10    14    1
    16    14    15    1
    17    15    16    1
    18    16    17    1
    19    17    18    1
    20    18    19    1
    21    18    20    1
    22    10    11   ar
    23    11    12    1
    24    11    13   ar
    25    13     1   ar
    26    13     6   ar
    27    20    14    1
    28    17    21    1
