@<TRIPOS>MOLECULE
*****
 40 42 0 0 0
SMALL
GASTEIGER

@<TRIPOS>ATOM
      1 C         139.3385  139.5320  160.8754 C.ar    1  UNL1        0.0597
      2 C         139.2521  138.6565  162.0902 C.ar    1  UNL1        0.0423
      3 C         138.5722  139.1584  163.3295 C.ar    1  UNL1        0.1504
      4 C         137.9789  140.5358  163.3540 C.ar    1  UNL1        0.0744
      5 C         138.0654  141.4114  162.1391 C.ar    1  UNL1        0.1416
      6 C         138.7452  140.9095  160.8998 C.ar    1  UNL1        0.0416
      7 N         141.4989  138.7895  159.6379 N.am    1  UNL1       -0.2644
      8 C         140.0184  139.0302  159.6360 C.2     1  UNL1        0.2508
      9 O         139.2177  138.7690  158.3948 O.2     1  UNL1       -0.2698
     10 H         142.0245  138.9609  160.4525 H       1  UNL1        0.1566
     11 N         143.1821  136.8135  156.7521 N.ar    1  UNL1       -0.2357
     12 C         143.2678  138.2174  156.2306 C.ar    1  UNL1        0.0988
     13 C         142.6476  139.1285  157.2482 C.ar    1  UNL1        0.0565
     14 C         142.1788  138.2876  158.3985 C.ar    1  UNL1        0.1557
     15 N         142.5091  136.8570  158.0919 N.ar    1  UNL1       -0.1534
     16 C         143.6818  135.5824  156.0560 C.3     1  UNL1        0.2423
     17 P         142.9657  134.2766  156.2351 P.3     1  UNL1        0.3677
     18 O         142.2497  132.9707  156.4143 O.2     1  UNL1       -0.2557
     19 O         141.8323  134.7825  155.3929 O.3     1  UNL1       -0.2928
     20 C         141.7114  134.8870  152.7998 C.3     1  UNL1        0.0352
     21 C         141.5233  134.1273  154.0795 C.3     1  UNL1        0.1515
     22 O         144.0993  133.7707  157.0774 O.3     1  UNL1       -0.2928
     23 C         144.6666  132.4045  156.8289 C.3     1  UNL1        0.1515
     24 C         145.1793  131.5853  157.9761 C.3     1  UNL1        0.0352
     25 O         138.4857  138.2828  164.5445 O.3     1  UNL1       -0.4347
     26 C         138.7759  138.8523  165.9015 C.ar    1  UNL1        0.2494
     27 C         137.8143  138.6271  167.0306 C.ar    1  UNL1        0.1569
     28 N         138.1045  139.1966  168.3876 N.ar    1  UNL1       -0.2328
     29 C         139.3562  139.9912  168.6155 C.ar    1  UNL1        0.1535
     30 C         140.3177  140.2163  167.4865 C.ar    1  UNL1        0.1257
     31 N         140.0275  139.6469  166.1294 N.ar    1  UNL1       -0.2068
     32 C         139.6464  140.5607  169.9726 C.2     1  UNL1        0.2621
     33 N         139.7828  139.6482  171.1553 N.am    1  UNL1       -0.3240
     34 O         139.8002  142.0425  170.1469 O.2     1  UNL1       -0.2687
     35 H         139.6818  138.6756  171.0409 H       1  UNL1        0.1453
     36 H         139.9732  140.0219  172.0460 H       1  UNL1        0.1453
     37 O         137.4720  142.7888  162.1636 O.3     1  UNL1       -0.4791
     38 C         138.0869  143.8552  163.0207 C.3     1  UNL1        0.1661
     39 C         139.1171  144.7801  162.4435 C.3     1  UNL1        0.0472
     40 C         137.6715  143.9968  164.4551 C.3     1  UNL1        0.0472
@<TRIPOS>BOND
     1    20    21    1
     2    21    19    1
     3    19    17    1
     4    17    18    2
     5    17    16    1
     6    16    11    1
     7    11    12   ar
     8    12    13   ar
     9    13    14   ar
    10    14     7    1
    11     7     8   am
    12     8     9    2
    13     8     1    1
    14     1     2   ar
    15     2     3   ar
    16     3    25    1
    17    25    26    1
    18    26    27   ar
    19    27    28   ar
    20    28    29   ar
    21    29    32    1
    22    32    33   am
    23    32    34    2
    24    29    30   ar
    25    30    31   ar
    26     3     4   ar
    27     4     5   ar
    28     5    37    1
    29    37    38    1
    30    38    39    1
    31    38    40    1
    32     5     6   ar
    33    14    15   ar
    34    17    22    1
    35    22    23    1
    36    23    24    1
    37    15    11   ar
    38     6     1   ar
    39    31    26   ar
    40     7    10    1
    41    33    35    1
    42    33    36    1
@<TRIPOS>MOLECULE
*****
 40 42 0 0 0
SMALL
GASTEIGER

@<TRIPOS>ATOM
      1 C         139.2664  139.7018  162.4393 C.ar    1  UNL1        0.0597
      2 C         138.6434  139.6074  163.8005 C.ar    1  UNL1        0.0423
      3 C         139.3967  138.9646  164.9271 C.ar    1  UNL1        0.1504
      4 C         140.7730  138.4161  164.6926 C.ar    1  UNL1        0.0744
      5 C         141.3960  138.5104  163.3314 C.ar    1  UNL1        0.1416
      6 C         140.6427  139.1533  162.2047 C.ar    1  UNL1        0.0416
      7 N         139.0468  140.2669  159.9130 N.am    1  UNL1       -0.2644
      8 C         138.5132  140.3446  161.3126 C.2     1  UNL1        0.2508
      9 O         137.2262  141.0652  161.5857 O.2     1  UNL1       -0.2698
     10 H         139.8915  139.7939  159.7338 H       1  UNL1        0.1566
     11 N         136.7412  141.2678  156.9553 N.ar    1  UNL1       -0.2357
     12 C         137.5277  142.5302  157.1497 C.ar    1  UNL1        0.0988
     13 C         138.4872  142.3089  158.2814 C.ar    1  UNL1        0.0565
     14 C         138.2936  140.9097  158.7862 C.ar    1  UNL1        0.1557
     15 N         137.2145  140.2663  157.9667 N.ar    1  UNL1       -0.1534
     16 C         135.6696  141.0459  155.9295 C.3     1  UNL1        0.2423
     17 P         135.8690  140.0299  154.8442 P.3     1  UNL1        0.3677
     18 O         136.0684  139.0139  153.7588 O.2     1  UNL1       -0.2557
     19 O         135.0101  139.0573  155.5967 O.3     1  UNL1       -0.2928
     20 C         133.1572  138.9613  157.4153 C.3     1  UNL1        0.0352
     21 C         133.6632  139.4814  156.1025 C.3     1  UNL1        0.1515
     22 O         136.7279  141.0026  154.0916 O.3     1  UNL1       -0.2928
     23 C         138.0919  140.5915  153.6221 C.3     1  UNL1        0.1515
     24 C         139.1602  140.2586  154.6211 C.3     1  UNL1        0.0352
     25 O         138.7737  138.8702  166.2884 O.3     1  UNL1       -0.4347
     26 C         139.1847  139.8258  167.3692 C.ar    1  UNL1        0.2494
     27 C         139.9703  141.0561  167.0236 C.ar    1  UNL1        0.1569
     28 N         140.3813  142.0116  168.1043 N.ar    1  UNL1       -0.2328
     29 C         140.0066  141.7369  169.5306 C.ar    1  UNL1        0.1535
     30 C         139.2210  140.5068  169.8761 C.ar    1  UNL1        0.1257
     31 N         138.8101  139.5512  168.7954 N.ar    1  UNL1       -0.2068
     32 C         140.4176  142.6925  170.6114 C.2     1  UNL1        0.2621
     33 N         140.8466  144.0857  170.2574 N.am    1  UNL1       -0.3240
     34 O         140.3996  142.2550  172.0460 O.2     1  UNL1       -0.2687
     35 H         140.8584  144.3728  169.3158 H       1  UNL1        0.1453
     36 H         141.1163  144.7128  170.9667 H       1  UNL1        0.1453
     37 O         142.7722  137.9619  163.0968 O.3     1  UNL1       -0.4791
     38 C         143.7987  138.7914  162.3838 C.3     1  UNL1        0.1661
     39 C         144.5190  139.8850  163.1153 C.3     1  UNL1        0.0472
     40 C         144.1049  138.5272  160.9393 C.3     1  UNL1        0.0472
@<TRIPOS>BOND
     1    20    21    1
     2    21    19    1
     3    19    17    1
     4    17    18    2
     5    17    16    1
     6    16    11    1
     7    11    12   ar
     8    12    13   ar
     9    13    14   ar
    10    14     7    1
    11     7     8   am
    12     8     9    2
    13     8     1    1
    14     1     2   ar
    15     2     3   ar
    16     3    25    1
    17    25    26    1
    18    26    27   ar
    19    27    28   ar
    20    28    29   ar
    21    29    32    1
    22    32    33   am
    23    32    34    2
    24    29    30   ar
    25    30    31   ar
    26     3     4   ar
    27     4     5   ar
    28     5    37    1
    29    37    38    1
    30    38    39    1
    31    38    40    1
    32     5     6   ar
    33    14    15   ar
    34    17    22    1
    35    22    23    1
    36    23    24    1
    37    15    11   ar
    38     6     1   ar
    39    31    26   ar
    40     7    10    1
    41    33    35    1
    42    33    36    1
@<TRIPOS>MOLECULE
*****
 40 42 0 0 0
SMALL
GASTEIGER

@<TRIPOS>ATOM
      1 C         142.3860  138.1164  162.3906 C.ar    1  UNL1        0.0597
      2 C         143.2760  138.6796  163.4587 C.ar    1  UNL1        0.0423
      3 C         142.7526  138.8602  164.8527 C.ar    1  UNL1        0.1504
      4 C         141.3393  138.4777  165.1787 C.ar    1  UNL1        0.0744
      5 C         140.4494  137.9146  164.1107 C.ar    1  UNL1        0.1416
      6 C         140.9727  137.7339  162.7166 C.ar    1  UNL1        0.0416
      7 N         142.0145  138.1924  159.8203 N.am    1  UNL1       -0.2644
      8 C         142.9093  137.9357  160.9965 C.2     1  UNL1        0.2508
      9 O         144.3275  137.4983  160.7786 O.2     1  UNL1       -0.2698
     10 H         141.0837  138.4794  159.9634 H       1  UNL1        0.1566
     11 N         143.4465  137.0029  156.4144 N.ar    1  UNL1       -0.2357
     12 C         143.2396  138.4644  156.1473 C.ar    1  UNL1        0.0988
     13 C         142.6779  139.0879  157.3908 C.ar    1  UNL1        0.0565
     14 C         142.5378  138.0117  158.4262 C.ar    1  UNL1        0.1557
     15 N         143.0128  136.7231  157.8228 N.ar    1  UNL1       -0.1534
     16 C         143.9914  135.9978  155.4436 C.3     1  UNL1        0.2423
     17 P         143.1824  134.7868  155.0843 P.3     1  UNL1        0.3677
     18 O         142.3733  133.5759  154.7250 O.2     1  UNL1       -0.2557
     19 O         142.4465  135.5855  154.0496 O.3     1  UNL1       -0.2928
     20 C         140.2373  136.3128  155.2072 C.3     1  UNL1        0.0352
     21 C         140.9476  135.6399  154.0703 C.3     1  UNL1        0.1515
     22 O         143.9183  133.9882  156.1191 O.3     1  UNL1       -0.2928
     23 C         143.7760  132.4954  156.1553 C.3     1  UNL1        0.1515
     24 C         144.9960  131.6278  156.2496 C.3     1  UNL1        0.0352
     25 O         143.6426  139.4234  165.9208 O.3     1  UNL1       -0.4347
     26 C         143.0626  139.8297  167.2432 C.ar    1  UNL1        0.2494
     27 C         142.5187  141.2151  167.4298 C.ar    1  UNL1        0.1569
     28 N         141.9387  141.6214  168.7521 N.ar    1  UNL1       -0.2328
     29 C         141.9026  140.6421  169.8878 C.ar    1  UNL1        0.1535
     30 C         142.4464  139.2567  169.7012 C.ar    1  UNL1        0.1257
     31 N         143.0264  138.8505  168.3789 N.ar    1  UNL1       -0.2068
     32 C         141.3225  141.0483  171.2102 C.2     1  UNL1        0.2621
     33 N         140.3028  140.1767  171.8814 N.am    1  UNL1       -0.3240
     34 O         141.7622  142.3261  171.8612 O.2     1  UNL1       -0.2687
     35 H         140.0143  139.3380  171.4541 H       1  UNL1        0.1453
     36 H         139.9221  140.4433  172.7493 H       1  UNL1        0.1453
     37 O         139.0361  137.5321  164.4367 O.3     1  UNL1       -0.4791
     38 C         138.2975  138.2496  165.5274 C.3     1  UNL1        0.1661
     39 C         138.1530  139.7418  165.4793 C.3     1  UNL1        0.0472
     40 C         137.7032  137.4748  166.6661 C.3     1  UNL1        0.0472
@<TRIPOS>BOND
     1    20    21    1
     2    21    19    1
     3    19    17    1
     4    17    18    2
     5    17    16    1
     6    16    11    1
     7    11    12   ar
     8    12    13   ar
     9    13    14   ar
    10    14     7    1
    11     7     8   am
    12     8     9    2
    13     8     1    1
    14     1     2   ar
    15     2     3   ar
    16     3    25    1
    17    25    26    1
    18    26    27   ar
    19    27    28   ar
    20    28    29   ar
    21    29    32    1
    22    32    33   am
    23    32    34    2
    24    29    30   ar
    25    30    31   ar
    26     3     4   ar
    27     4     5   ar
    28     5    37    1
    29    37    38    1
    30    38    39    1
    31    38    40    1
    32     5     6   ar
    33    14    15   ar
    34    17    22    1
    35    22    23    1
    36    23    24    1
    37    15    11   ar
    38     6     1   ar
    39    31    26   ar
    40     7    10    1
    41    33    35    1
    42    33    36    1
@<TRIPOS>MOLECULE
*****
 40 42 0 0 0
SMALL
GASTEIGER

@<TRIPOS>ATOM
      1 C         140.7814  139.9707  161.8174 C.ar    1  UNL1        0.0597
      2 C         140.9213  139.2122  163.1039 C.ar    1  UNL1        0.0423
      3 C         140.8070  139.9319  164.4150 C.ar    1  UNL1        0.1504
      4 C         140.5528  141.4100  164.4396 C.ar    1  UNL1        0.0744
      5 C         140.4129  142.1684  163.1531 C.ar    1  UNL1        0.1416
      6 C         140.5272  141.4488  161.8420 C.ar    1  UNL1        0.0416
      7 N         142.1243  139.4200  159.6626 N.am    1  UNL1       -0.2644
      8 C         140.8957  139.2511  160.5062 C.2     1  UNL1        0.2508
      9 O         139.7812  138.3625  160.0388 O.2     1  UNL1       -0.2698
     10 H         142.8558  140.0031  159.9694 H       1  UNL1        0.1566
     11 N         142.8102  137.0497  156.6665 N.ar    1  UNL1       -0.2357
     12 C         142.0187  138.1364  156.0010 C.ar    1  UNL1        0.0988
     13 C         141.6654  139.1566  157.0425 C.ar    1  UNL1        0.0565
     14 C         142.2386  138.7003  158.3514 C.ar    1  UNL1        0.1557
     15 N         142.9461  137.3982  158.1190 N.ar    1  UNL1       -0.1534
     16 C         143.3678  135.8288  155.9968 C.3     1  UNL1        0.2423
     17 P         142.8629  134.4683  156.3766 P.3     1  UNL1        0.3677
     18 O         142.3582  133.1079  156.7564 O.2     1  UNL1       -0.2557
     19 O         141.6048  134.7181  155.5991 O.3     1  UNL1       -0.2928
     20 C         141.0001  135.5958  153.2298 C.3     1  UNL1        0.0352
     21 C         141.5948  134.5369  154.1101 C.3     1  UNL1        0.1515
     22 O         144.1212  134.2186  157.1541 O.3     1  UNL1       -0.2928
     23 C         144.2668  132.9633  157.9623 C.3     1  UNL1        0.1515
     24 C         145.5697  132.2202  157.9655 C.3     1  UNL1        0.0352
     25 O         140.9469  139.1734  165.7016 O.3     1  UNL1       -0.4347
     26 C         141.1156  139.9147  166.9947 C.ar    1  UNL1        0.2494
     27 C         139.9543  140.0597  167.9331 C.ar    1  UNL1        0.1569
     28 N         140.1230  140.8010  169.2261 N.ar    1  UNL1       -0.2328
     29 C         141.4530  141.3973  169.5808 C.ar    1  UNL1        0.1535
     30 C         142.6142  141.2522  168.6424 C.ar    1  UNL1        0.1257
     31 N         142.4454  140.5109  167.3494 N.ar    1  UNL1       -0.2068
     32 C         141.6217  142.1386  170.8739 C.2     1  UNL1        0.2621
     33 N         142.8605  142.9485  171.1179 N.am    1  UNL1       -0.3240
     34 O         140.5517  142.0699  171.9228 O.2     1  UNL1       -0.2687
     35 H         143.5627  142.9936  170.4294 H       1  UNL1        0.1453
     36 H         142.9712  143.4351  171.9666 H       1  UNL1        0.1453
     37 O         140.1587  143.6465  163.1777 O.3     1  UNL1       -0.4791
     38 C         138.9269  144.1847  163.8432 C.3     1  UNL1        0.1661
     39 C         139.0093  144.7475  165.2312 C.3     1  UNL1        0.0472
     40 C         137.6126  144.1603  163.1206 C.3     1  UNL1        0.0472
@<TRIPOS>BOND
     1    20    21    1
     2    21    19    1
     3    19    17    1
     4    17    18    2
     5    17    16    1
     6    16    11    1
     7    11    12   ar
     8    12    13   ar
     9    13    14   ar
    10    14     7    1
    11     7     8   am
    12     8     9    2
    13     8     1    1
    14     1     2   ar
    15     2     3   ar
    16     3    25    1
    17    25    26    1
    18    26    27   ar
    19    27    28   ar
    20    28    29   ar
    21    29    32    1
    22    32    33   am
    23    32    34    2
    24    29    30   ar
    25    30    31   ar
    26     3     4   ar
    27     4     5   ar
    28     5    37    1
    29    37    38    1
    30    38    39    1
    31    38    40    1
    32     5     6   ar
    33    14    15   ar
    34    17    22    1
    35    22    23    1
    36    23    24    1
    37    15    11   ar
    38     6     1   ar
    39    31    26   ar
    40     7    10    1
    41    33    35    1
    42    33    36    1
@<TRIPOS>MOLECULE
*****
 40 42 0 0 0
SMALL
GASTEIGER

@<TRIPOS>ATOM
      1 C         142.3931  140.0026  161.7670 C.ar    1  UNL1        0.0597
      2 C         142.7781  139.5802  163.1539 C.ar    1  UNL1        0.0423
      3 C         142.2463  140.3282  164.3403 C.ar    1  UNL1        0.1504
      4 C         141.3297  141.4985  164.1400 C.ar    1  UNL1        0.0744
      5 C         140.9447  141.9208  162.7531 C.ar    1  UNL1        0.1416
      6 C         141.4765  141.1728  161.5666 C.ar    1  UNL1        0.0416
      7 N         142.0450  139.0139  159.3898 N.am    1  UNL1       -0.2644
      8 C         142.9248  139.2546  160.5805 C.2     1  UNL1        0.2508
      9 O         144.3365  138.7473  160.5847 O.2     1  UNL1       -0.2698
     10 H         141.1185  139.3468  159.3870 H       1  UNL1        0.1566
     11 N         143.3410  136.4714  156.7588 N.ar    1  UNL1       -0.2357
     12 C         143.4488  137.7584  155.9958 C.ar    1  UNL1        0.0988
     13 C         142.9764  138.8675  156.8885 C.ar    1  UNL1        0.0565
     14 C         142.5767  138.2659  158.2032 C.ar    1  UNL1        0.1557
     15 N         142.8020  136.7851  158.1230 N.ar    1  UNL1       -0.1534
     16 C         143.7078  135.1099  156.2473 C.3     1  UNL1        0.2423
     17 P         142.6338  134.1054  155.9513 P.3     1  UNL1        0.3677
     18 O         141.5599  133.1010  155.6553 O.2     1  UNL1       -0.2557
     19 O         142.8955  133.4374  157.2686 O.3     1  UNL1       -0.2928
     20 C         144.8337  131.7867  157.7868 C.3     1  UNL1        0.0352
     21 C         144.3053  133.1888  157.7164 C.3     1  UNL1        0.1515
     22 O         142.3722  134.7736  154.6340 O.3     1  UNL1       -0.2928
     23 C         140.9717  135.1466  154.2474 C.3     1  UNL1        0.1515
     24 C         140.3148  136.3425  154.8705 C.3     1  UNL1        0.0352
     25 O         142.6313  139.9059  165.7273 O.3     1  UNL1       -0.4347
     26 C         142.0915  140.6477  166.9141 C.ar    1  UNL1        0.2494
     27 C         142.8831  141.7676  167.5220 C.ar    1  UNL1        0.1569
     28 N         142.3433  142.5094  168.7088 N.ar    1  UNL1       -0.2328
     29 C         141.0121  142.1313  169.2876 C.ar    1  UNL1        0.1535
     30 C         140.2207  141.0115  168.6797 C.ar    1  UNL1        0.1257
     31 N         140.7604  140.2697  167.4929 N.ar    1  UNL1       -0.2068
     32 C         140.4724  142.8731  170.4744 C.2     1  UNL1        0.2621
     33 N         139.9986  144.2882  170.3224 N.am    1  UNL1       -0.3240
     34 O         140.4064  142.1998  171.8132 O.2     1  UNL1       -0.2687
     35 H         140.0419  144.7301  169.4437 H       1  UNL1        0.1453
     36 H         139.6444  144.7751  171.1013 H       1  UNL1        0.1453
     37 O         140.0281  143.0911  162.5527 O.3     1  UNL1       -0.4791
     38 C         138.5517  142.9324  162.7649 C.3     1  UNL1        0.1661
     39 C         137.8993  141.6019  162.5319 C.3     1  UNL1        0.0472
     40 C         137.7277  144.1041  163.2103 C.3     1  UNL1        0.0472
@<TRIPOS>BOND
     1    20    21    1
     2    21    19    1
     3    19    17    1
     4    17    18    2
     5    17    16    1
     6    16    11    1
     7    11    12   ar
     8    12    13   ar
     9    13    14   ar
    10    14     7    1
    11     7     8   am
    12     8     9    2
    13     8     1    1
    14     1     2   ar
    15     2     3   ar
    16     3    25    1
    17    25    26    1
    18    26    27   ar
    19    27    28   ar
    20    28    29   ar
    21    29    32    1
    22    32    33   am
    23    32    34    2
    24    29    30   ar
    25    30    31   ar
    26     3     4   ar
    27     4     5   ar
    28     5    37    1
    29    37    38    1
    30    38    39    1
    31    38    40    1
    32     5     6   ar
    33    14    15   ar
    34    17    22    1
    35    22    23    1
    36    23    24    1
    37    15    11   ar
    38     6     1   ar
    39    31    26   ar
    40     7    10    1
    41    33    35    1
    42    33    36    1
@<TRIPOS>MOLECULE
*****
 40 42 0 0 0
SMALL
GASTEIGER

@<TRIPOS>ATOM
      1 C         142.2481  138.1844  162.6906 C.ar    1  UNL1        0.0597
      2 C         143.0547  138.9814  163.6724 C.ar    1  UNL1        0.0423
      3 C         142.5253  139.2262  165.0543 C.ar    1  UNL1        0.1504
      4 C         141.1892  138.6742  165.4543 C.ar    1  UNL1        0.0744
      5 C         140.3825  137.8772  164.4725 C.ar    1  UNL1        0.1416
      6 C         140.9120  137.6323  163.0906 C.ar    1  UNL1        0.0416
      7 N         141.9076  138.2009  160.1149 N.am    1  UNL1       -0.2644
      8 C         142.7775  137.9395  161.3086 C.2     1  UNL1        0.2508
      9 O         144.1768  137.4331  161.1204 O.2     1  UNL1       -0.2698
     10 H         140.9892  138.5333  160.2385 H       1  UNL1        0.1566
     11 N         143.2900  136.8443  156.7513 N.ar    1  UNL1       -0.2357
     12 C         143.2134  138.3141  156.4614 C.ar    1  UNL1        0.0988
     13 C         142.6862  139.0012  157.6863 C.ar    1  UNL1        0.0565
     14 C         142.4370  137.9560  158.7329 C.ar    1  UNL1        0.1557
     15 N         142.8102  136.6230  158.1551 N.ar    1  UNL1       -0.1534
     16 C         143.7634  135.7823  155.8037 C.3     1  UNL1        0.2423
     17 P         142.7750  134.8519  155.1653 P.3     1  UNL1        0.3677
     18 O         141.7866  133.9216  154.5269 O.2     1  UNL1       -0.2557
     19 O         142.9251  133.9024  156.3167 O.3     1  UNL1       -0.2928
     20 C         144.7358  132.7748  157.7998 C.3     1  UNL1        0.0352
     21 C         144.1651  133.0680  156.4440 C.3     1  UNL1        0.1515
     22 O         142.6249  135.8016  154.0139 O.3     1  UNL1       -0.2928
     23 C         141.2574  136.1826  153.5293 C.3     1  UNL1        0.1515
     24 C         140.3988  137.0982  154.3506 C.3     1  UNL1        0.0352
     25 O         143.3319  140.0233  166.0363 O.3     1  UNL1       -0.4347
     26 C         142.6573  140.6766  167.2059 C.ar    1  UNL1        0.2494
     27 C         142.6761  140.0113  168.5502 C.ar    1  UNL1        0.1569
     28 N         142.0015  140.6646  169.7198 N.ar    1  UNL1       -0.2328
     29 C         141.3080  141.9832  169.5451 C.ar    1  UNL1        0.1535
     30 C         141.2892  142.6484  168.2009 C.ar    1  UNL1        0.1257
     31 N         141.9638  141.9951  167.0313 N.ar    1  UNL1       -0.2068
     32 C         140.6333  142.6365  170.7148 C.2     1  UNL1        0.2621
     33 N         139.8930  143.9278  170.5283 N.am    1  UNL1       -0.3240
     34 O         140.6990  141.9987  172.0708 O.2     1  UNL1       -0.2687
     35 H         139.8500  144.3464  169.6383 H       1  UNL1        0.1453
     36 H         139.4502  144.3566  171.2960 H       1  UNL1        0.1453
     37 O         139.0464  137.3251  164.8725 O.3     1  UNL1       -0.4791
     38 C         138.1783  138.0836  165.8323 C.3     1  UNL1        0.1661
     39 C         138.0304  139.5700  165.6959 C.3     1  UNL1        0.0472
     40 C         137.4582  137.3556  166.9284 C.3     1  UNL1        0.0472
@<TRIPOS>BOND
     1    20    21    1
     2    21    19    1
     3    19    17    1
     4    17    18    2
     5    17    16    1
     6    16    11    1
     7    11    12   ar
     8    12    13   ar
     9    13    14   ar
    10    14     7    1
    11     7     8   am
    12     8     9    2
    13     8     1    1
    14     1     2   ar
    15     2     3   ar
    16     3    25    1
    17    25    26    1
    18    26    27   ar
    19    27    28   ar
    20    28    29   ar
    21    29    32    1
    22    32    33   am
    23    32    34    2
    24    29    30   ar
    25    30    31   ar
    26     3     4   ar
    27     4     5   ar
    28     5    37    1
    29    37    38    1
    30    38    39    1
    31    38    40    1
    32     5     6   ar
    33    14    15   ar
    34    17    22    1
    35    22    23    1
    36    23    24    1
    37    15    11   ar
    38     6     1   ar
    39    31    26   ar
    40     7    10    1
    41    33    35    1
    42    33    36    1
@<TRIPOS>MOLECULE
*****
 40 42 0 0 0
SMALL
GASTEIGER

@<TRIPOS>ATOM
      1 C         138.7404  139.9029  162.3321 C.ar    1  UNL1        0.0597
      2 C         138.9200  139.1524  163.6183 C.ar    1  UNL1        0.0423
      3 C         138.6627  139.8367  164.9281 C.ar    1  UNL1        0.1504
      4 C         138.2257  141.2714  164.9516 C.ar    1  UNL1        0.0744
      5 C         138.0460  142.0219  163.6654 C.ar    1  UNL1        0.1416
      6 C         138.3034  141.3377  162.3556 C.ar    1  UNL1        0.0416
      7 N         139.4843  140.0108  159.8451 N.am    1  UNL1       -0.2644
      8 C         138.9977  139.2187  161.0222 C.2     1  UNL1        0.2508
      9 O         138.7684  137.7422  160.8896 O.2     1  UNL1       -0.2698
     10 H         139.6348  140.9799  159.9322 H       1  UNL1        0.1566
     11 N         140.6421  137.8287  156.8512 N.ar    1  UNL1       -0.2357
     12 C         139.6331  138.7187  156.1881 C.ar    1  UNL1        0.0988
     13 C         139.0765  139.6445  157.2289 C.ar    1  UNL1        0.0565
     14 C         139.7416  139.3266  158.5353 C.ar    1  UNL1        0.1557
     15 N         140.7092  138.2044  158.3019 N.ar    1  UNL1       -0.1534
     16 C         141.4433  136.7521  156.1814 C.3     1  UNL1        0.2423
     17 P         142.9268  136.9090  156.0239 P.3     1  UNL1        0.3677
     18 O         144.4102  137.0659  155.8665 O.2     1  UNL1       -0.2557
     19 O         142.7086  137.7355  154.7914 O.3     1  UNL1       -0.2928
     20 C         143.8121  139.5985  153.3556 C.3     1  UNL1        0.0352
     21 C         143.3256  139.0985  154.6834 C.3     1  UNL1        0.1515
     22 O         143.1449  136.0824  157.2565 O.3     1  UNL1       -0.2928
     23 C         143.2654  134.5912  157.1479 C.3     1  UNL1        0.1515
     24 C         143.6117  133.9606  155.8317 C.3     1  UNL1        0.0352
     25 O         138.8424  139.0862  166.2144 O.3     1  UNL1       -0.4347
     26 C         139.4565  139.7680  167.4010 C.ar    1  UNL1        0.2494
     27 C         140.7621  140.4924  167.2572 C.ar    1  UNL1        0.1569
     28 N         141.3762  141.1743  168.4438 N.ar    1  UNL1       -0.2328
     29 C         140.6846  141.1317  169.7743 C.ar    1  UNL1        0.1535
     30 C         139.3791  140.4073  169.9180 C.ar    1  UNL1        0.1257
     31 N         138.7650  139.7254  168.7314 N.ar    1  UNL1       -0.2068
     32 C         141.2987  141.8135  170.9609 C.2     1  UNL1        0.2621
     33 N         142.7697  142.1067  170.9792 N.am    1  UNL1       -0.3240
     34 O         140.4419  142.2021  172.1291 O.2     1  UNL1       -0.2687
     35 H         143.3321  141.8517  170.2124 H       1  UNL1        0.1453
     36 H         143.1727  142.5542  171.7580 H       1  UNL1        0.1453
     37 O         137.6090  143.4566  163.6889 O.3     1  UNL1       -0.4791
     38 C         138.5545  144.5210  164.1614 C.3     1  UNL1        0.1661
     39 C         139.5394  145.1271  163.2061 C.3     1  UNL1        0.0472
     40 C         138.5150  144.9793  165.5892 C.3     1  UNL1        0.0472
@<TRIPOS>BOND
     1    20    21    1
     2    21    19    1
     3    19    17    1
     4    17    18    2
     5    17    16    1
     6    16    11    1
     7    11    12   ar
     8    12    13   ar
     9    13    14   ar
    10    14     7    1
    11     7     8   am
    12     8     9    2
    13     8     1    1
    14     1     2   ar
    15     2     3   ar
    16     3    25    1
    17    25    26    1
    18    26    27   ar
    19    27    28   ar
    20    28    29   ar
    21    29    32    1
    22    32    33   am
    23    32    34    2
    24    29    30   ar
    25    30    31   ar
    26     3     4   ar
    27     4     5   ar
    28     5    37    1
    29    37    38    1
    30    38    39    1
    31    38    40    1
    32     5     6   ar
    33    14    15   ar
    34    17    22    1
    35    22    23    1
    36    23    24    1
    37    15    11   ar
    38     6     1   ar
    39    31    26   ar
    40     7    10    1
    41    33    35    1
    42    33    36    1
@<TRIPOS>MOLECULE
*****
 40 42 0 0 0
SMALL
GASTEIGER

@<TRIPOS>ATOM
      1 C         138.1485  140.3480  162.2096 C.ar    1  UNL1        0.0597
      2 C         138.4739  139.4060  163.3307 C.ar    1  UNL1        0.0423
      3 C         138.4965  139.9035  164.7456 C.ar    1  UNL1        0.1504
      4 C         138.1937  141.3430  165.0394 C.ar    1  UNL1        0.0744
      5 C         137.8684  142.2849  163.9183 C.ar    1  UNL1        0.1416
      6 C         137.8457  141.7874  162.5035 C.ar    1  UNL1        0.0416
      7 N         139.3994  139.7745  160.0059 N.am    1  UNL1       -0.2644
      8 C         138.1259  139.8505  160.7947 C.2     1  UNL1        0.2508
      9 O         136.8296  139.4290  160.1685 O.2     1  UNL1       -0.2698
     10 H         140.2502  140.0511  160.4169 H       1  UNL1        0.1566
     11 N         138.8755  139.0677  156.2255 N.ar    1  UNL1       -0.2357
     12 C         139.8086  137.9551  156.6017 C.ar    1  UNL1        0.0988
     13 C         140.1184  138.0845  158.0638 C.ar    1  UNL1        0.0565
     14 C         139.3768  139.2770  158.5909 C.ar    1  UNL1        0.1557
     15 N         138.6086  139.8846  157.4549 N.ar    1  UNL1       -0.1534
     16 C         138.3087  139.3192  154.8597 C.3     1  UNL1        0.2423
     17 P         137.3070  140.4165  154.6536 P.3     1  UNL1        0.3677
     18 O         136.3053  141.5138  154.4476 O.2     1  UNL1       -0.2557
     19 O         138.3558  141.2464  153.9743 O.3     1  UNL1       -0.2928
     20 C         138.7801  143.7883  153.6449 C.3     1  UNL1        0.0352
     21 C         137.9834  142.5542  153.3411 C.3     1  UNL1        0.1515
     22 O         136.2583  139.5866  155.3330 O.3     1  UNL1       -0.2928
     23 C         134.8388  139.6296  154.8502 C.3     1  UNL1        0.1515
     24 C         133.7098  139.6119  155.8377 C.3     1  UNL1        0.0352
     25 O         138.8219  138.9616  165.8667 O.3     1  UNL1       -0.4347
     26 C         139.4200  139.4870  167.1380 C.ar    1  UNL1        0.2494
     27 C         140.8601  139.9056  167.1724 C.ar    1  UNL1        0.1569
     28 N         141.4582  140.4310  168.4437 N.ar    1  UNL1       -0.2328
     29 C         140.6162  140.5379  169.6806 C.ar    1  UNL1        0.1535
     30 C         139.1762  140.1193  169.6461 C.ar    1  UNL1        0.1257
     31 N         138.5781  139.5938  168.3748 N.ar    1  UNL1       -0.2068
     32 C         141.2143  141.0633  170.9519 C.2     1  UNL1        0.2621
     33 N         142.5267  140.5264  171.4413 N.am    1  UNL1       -0.3240
     34 O         140.5001  142.1255  171.7338 O.2     1  UNL1       -0.2687
     35 H         142.9955  139.8292  170.9281 H       1  UNL1        0.1453
     36 H         142.9193  140.8713  172.2757 H       1  UNL1        0.1453
     37 O         137.5656  143.7244  164.2122 O.3     1  UNL1       -0.4791
     38 C         138.6440  144.6258  164.7361 C.3     1  UNL1        0.1661
     39 C         139.8311  144.9517  163.8791 C.3     1  UNL1        0.0472
     40 C         138.5352  145.2014  166.1170 C.3     1  UNL1        0.0472
@<TRIPOS>BOND
     1    20    21    1
     2    21    19    1
     3    19    17    1
     4    17    18    2
     5    17    16    1
     6    16    11    1
     7    11    12   ar
     8    12    13   ar
     9    13    14   ar
    10    14     7    1
    11     7     8   am
    12     8     9    2
    13     8     1    1
    14     1     2   ar
    15     2     3   ar
    16     3    25    1
    17    25    26    1
    18    26    27   ar
    19    27    28   ar
    20    28    29   ar
    21    29    32    1
    22    32    33   am
    23    32    34    2
    24    29    30   ar
    25    30    31   ar
    26     3     4   ar
    27     4     5   ar
    28     5    37    1
    29    37    38    1
    30    38    39    1
    31    38    40    1
    32     5     6   ar
    33    14    15   ar
    34    17    22    1
    35    22    23    1
    36    23    24    1
    37    15    11   ar
    38     6     1   ar
    39    31    26   ar
    40     7    10    1
    41    33    35    1
    42    33    36    1
@<TRIPOS>MOLECULE
*****
 40 42 0 0 0
SMALL
GASTEIGER

@<TRIPOS>ATOM
      1 C         138.4746  140.7440  162.2068 C.ar    1  UNL1        0.0597
      2 C         138.4453  139.8183  163.3867 C.ar    1  UNL1        0.0423
      3 C         138.5362  140.3729  164.7774 C.ar    1  UNL1        0.1504
      4 C         138.6563  141.8532  164.9882 C.ar    1  UNL1        0.0744
      5 C         138.6856  142.7788  163.8083 C.ar    1  UNL1        0.1416
      6 C         138.5947  142.2242  162.4176 C.ar    1  UNL1        0.0416
      7 N         138.5058  141.1049  159.6340 N.am    1  UNL1       -0.2644
      8 C         138.3837  140.1894  160.8160 C.2     1  UNL1        0.2508
      9 O         138.1707  138.7194  160.6072 O.2     1  UNL1       -0.2698
     10 H         138.6456  142.0697  159.7711 H       1  UNL1        0.1566
     11 N         137.5710  139.9492  156.0485 N.ar    1  UNL1       -0.2357
     12 C         138.9794  139.4446  156.1577 C.ar    1  UNL1        0.0988
     13 C         139.5010  139.8162  157.5142 C.ar    1  UNL1        0.0565
     14 C         138.4149  140.5503  158.2432 C.ar    1  UNL1        0.1557
     15 N         137.2222  140.6326  157.3374 N.ar    1  UNL1       -0.1534
     16 C         136.6697  139.7972  154.8592 C.3     1  UNL1        0.2423
     17 P         135.3391  140.4892  154.8331 P.3     1  UNL1        0.3677
     18 O         134.0086  141.1813  154.8069 O.2     1  UNL1       -0.2557
     19 O         134.7333  139.3536  155.6034 O.3     1  UNL1       -0.2928
     20 C         132.4845  138.6659  156.7078 C.3     1  UNL1        0.0352
     21 C         133.6372  139.6187  156.5925 C.3     1  UNL1        0.1515
     22 O         135.9450  141.6248  154.0627 O.3     1  UNL1       -0.2928
     23 C         136.2383  142.9253  154.7502 C.3     1  UNL1        0.1515
     24 C         137.0688  143.9673  154.0612 C.3     1  UNL1        0.0352
     25 O         138.5070  139.4472  165.9574 O.3     1  UNL1       -0.4347
     26 C         139.3903  139.7121  167.1404 C.ar    1  UNL1        0.2494
     27 C         140.8740  139.8345  166.9562 C.ar    1  UNL1        0.1569
     28 N         141.7573  140.0994  168.1392 N.ar    1  UNL1       -0.2328
     29 C         141.1569  140.2418  169.5065 C.ar    1  UNL1        0.1535
     30 C         139.6734  140.1194  169.6907 C.ar    1  UNL1        0.1257
     31 N         138.7901  139.8545  168.5077 N.ar    1  UNL1       -0.2068
     32 C         142.0403  140.5067  170.6896 C.2     1  UNL1        0.2621
     33 N         143.4397  139.9672  170.7164 N.am    1  UNL1       -0.3240
     34 O         141.5242  141.3110  171.8457 O.2     1  UNL1       -0.2687
     35 H         143.7784  139.4393  169.9576 H       1  UNL1        0.1453
     36 H         144.0194  140.1410  171.4929 H       1  UNL1        0.1453
     37 O         138.8057  144.2591  164.0191 O.3     1  UNL1       -0.4791
     38 C         139.8953  145.0284  163.3330 C.3     1  UNL1        0.1661
     39 C         141.3049  144.9456  163.8392 C.3     1  UNL1        0.0472
     40 C         139.5755  145.8805  162.1407 C.3     1  UNL1        0.0472
@<TRIPOS>BOND
     1    20    21    1
     2    21    19    1
     3    19    17    1
     4    17    18    2
     5    17    16    1
     6    16    11    1
     7    11    12   ar
     8    12    13   ar
     9    13    14   ar
    10    14     7    1
    11     7     8   am
    12     8     9    2
    13     8     1    1
    14     1     2   ar
    15     2     3   ar
    16     3    25    1
    17    25    26    1
    18    26    27   ar
    19    27    28   ar
    20    28    29   ar
    21    29    32    1
    22    32    33   am
    23    32    34    2
    24    29    30   ar
    25    30    31   ar
    26     3     4   ar
    27     4     5   ar
    28     5    37    1
    29    37    38    1
    30    38    39    1
    31    38    40    1
    32     5     6   ar
    33    14    15   ar
    34    17    22    1
    35    22    23    1
    36    23    24    1
    37    15    11   ar
    38     6     1   ar
    39    31    26   ar
    40     7    10    1
    41    33    35    1
    42    33    36    1
