@<TRIPOS>MOLECULE
*****
 38 42 0 0 0
SMALL
GASTEIGER

@<TRIPOS>ATOM
      1 N         137.8579  142.8330  163.5555 N.3     1  UNL1       -0.2689
      2 C         137.8203  142.5551  162.0820 C.3     1  UNL1        0.0737
      3 C         137.8534  141.1404  161.5845 C.3     1  UNL1        0.0356
      4 C         137.9239  140.0036  162.5606 C.3     1  UNL1        0.0846
      5 C         137.9614  140.2816  164.0341 C.3     1  UNL1        0.1455
      6 C         137.9284  141.6963  164.5316 C.3     1  UNL1        0.1034
      7 N         137.9569  138.5888  162.0631 N.3     1  UNL1       -0.2915
      8 H         137.3148  138.5398  161.2722 H       1  UNL1        0.1236
      9 C         139.2518  137.9840  161.6078 C.3     1  UNL1        0.1152
     10 C         140.5046  138.2084  162.4016 C.ar    1  UNL1        0.0765
     11 C         140.7663  137.3964  163.6353 C.ar    1  UNL1        0.0193
     12 C         142.0191  137.6208  164.4292 C.ar    1  UNL1        0.0411
     13 C         143.0101  138.6573  163.9893 C.ar    1  UNL1        0.1708
     14 C         142.7484  139.4694  162.7556 C.ar    1  UNL1        0.1682
     15 N         141.4956  139.2449  161.9617 N.ar    1  UNL1       -0.2304
     16 N         143.7394  140.5059  162.3157 N.am    1  UNL1       -0.2639
     17 C         144.9922  140.7303  163.1096 C.2     1  UNL1        0.2718
     18 O         145.9833  141.7668  162.6697 O.2     1  UNL1       -0.2707
     19 C         145.2539  139.9183  164.3433 C.3     1  UNL1        0.2898
     20 O         144.2629  138.8818  164.7831 O.3     1  UNL1       -0.4628
     21 H         143.5676  141.0389  161.5060 H       1  UNL1        0.1565
     22 O         138.0319  139.1447  165.0102 O.3     1  UNL1       -0.3508
     23 C         138.8120  139.2959  166.2825 C.3     1  UNL1        0.1741
     24 C         137.8248  144.2478  164.0529 C.3     1  UNL1        0.0970
     25 C         138.9878  144.7992  164.8233 C.3     1  UNL1        0.1264
     26 C         141.0773  141.9902  167.6504 C.ar    1  UNL1        0.1403
     27 C         142.4688  141.5189  167.3475 C.ar    1  UNL1        0.0385
     28 C         143.1637  141.9841  166.1022 C.ar    1  UNL1        0.0237
     29 C         142.4672  142.9204  165.1599 C.ar    1  UNL1        0.0975
     30 N         143.1622  143.3855  163.9146 N.ar    1  UNL1       -0.2374
     31 C         142.4657  144.3219  162.9722 C.ar    1  UNL1        0.1594
     32 C         141.0742  144.7931  163.2751 C.ar    1  UNL1        0.2803
     33 O         140.3777  145.7295  162.3327 O.2     1  UNL1       -0.2653
     34 N         140.3792  144.3280  164.5204 N.ar    1  UNL1       -0.2913
     35 C         141.0758  143.3916  165.4628 C.ar    1  UNL1        0.0832
     36 C         140.3809  142.9265  166.7080 C.ar    1  UNL1        0.0557
     37 C         140.0286  142.5105  169.9697 C.3     1  UNL1        0.2525
     38 O         140.3824  141.5250  168.8957 O.3     1  UNL1       -0.4714
@<TRIPOS>BOND
     1    37    38    1
     2    38    26    1
     3    26    27   ar
     4    27    28   ar
     5    28    29   ar
     6    29    30   ar
     7    30    31   ar
     8    31    32   ar
     9    32    33    2
    10    32    34   ar
    11    34    25    1
    12    25    24    1
    13    24     1    1
    14     1     2    1
    15     2     3    1
    16     3     4    1
    17     4     7    1
    18     7     9    1
    19     9    10    1
    20    10    11   ar
    21    11    12   ar
    22    12    13   ar
    23    13    14   ar
    24    14    15   ar
    25    14    16    1
    26    16    17   am
    27    17    18    2
    28    17    19    1
    29    19    20    1
    30     4     5    1
    31     5    22    1
    32    22    23    1
    33     5     6    1
    34    34    35   ar
    35    35    36   ar
    36    36    26   ar
    37    35    29   ar
    38     6     1    1
    39    15    10   ar
    40    20    13    1
    41     7     8    1
    42    16    21    1
@<TRIPOS>MOLECULE
*****
 38 42 0 0 0
SMALL
GASTEIGER

@<TRIPOS>ATOM
      1 N         142.6463  144.2130  163.1878 N.3     1  UNL1       -0.2689
      2 C         142.5197  143.6482  161.8039 C.3     1  UNL1        0.0737
      3 C         141.1632  143.4573  161.1930 C.3     1  UNL1        0.0356
      4 C         139.9332  143.8311  161.9659 C.3     1  UNL1        0.0846
      5 C         140.0598  144.3958  163.3498 C.3     1  UNL1        0.1455
      6 C         141.4164  144.5868  163.9607 C.3     1  UNL1        0.1034
      7 N         138.5766  143.6402  161.3550 N.3     1  UNL1       -0.2915
      8 H         138.5066  144.3009  160.5810 H       1  UNL1        0.1236
      9 C         138.1790  142.2981  160.8159 C.3     1  UNL1        0.1152
     10 C         138.3664  141.0679  161.6535 C.ar    1  UNL1        0.0765
     11 C         138.8931  139.8093  161.0302 C.ar    1  UNL1        0.0193
     12 C         139.0805  138.5791  161.8678 C.ar    1  UNL1        0.0411
     13 C         138.7412  138.6075  163.3287 C.ar    1  UNL1        0.1708
     14 C         138.2145  139.8662  163.9519 C.ar    1  UNL1        0.1682
     15 N         138.0271  141.0964  163.1143 N.ar    1  UNL1       -0.2304
     16 N         137.8752  139.8947  165.4128 N.am    1  UNL1       -0.2639
     17 C         138.0626  138.6644  166.2504 C.2     1  UNL1        0.2718
     18 O         137.7233  138.6929  167.7112 O.2     1  UNL1       -0.2707
     19 C         138.5893  137.4058  165.6271 C.3     1  UNL1        0.2898
     20 O         138.9286  137.3774  164.1662 O.3     1  UNL1       -0.4628
     21 H         137.5295  140.7207  165.8218 H       1  UNL1        0.1565
     22 O         138.8298  144.7696  164.1227 O.3     1  UNL1       -0.3508
     23 C         138.8897  144.8867  165.6169 C.3     1  UNL1        0.1741
     24 C         144.0030  144.4039  163.7987 C.3     1  UNL1        0.0970
     25 C         144.4355  143.5433  164.9486 C.3     1  UNL1        0.1264
     26 C         141.2101  141.7782  167.5430 C.ar    1  UNL1        0.1403
     27 C         140.9489  140.3014  167.5144 C.ar    1  UNL1        0.0385
     28 C         141.7628  139.4130  166.6210 C.ar    1  UNL1        0.0237
     29 C         142.8379  140.0013  165.7562 C.ar    1  UNL1        0.0975
     30 N         143.6519  139.1129  164.8628 N.ar    1  UNL1       -0.2374
     31 C         144.7270  139.7012  163.9980 C.ar    1  UNL1        0.1594
     32 C         144.9882  141.1781  164.0266 C.ar    1  UNL1        0.2803
     33 O         146.0634  141.7664  163.1618 O.2     1  UNL1       -0.2653
     34 N         144.1743  142.0665  164.9200 N.ar    1  UNL1       -0.2913
     35 C         143.0991  141.4781  165.7848 C.ar    1  UNL1        0.0832
     36 C         142.2852  142.3665  166.6783 C.ar    1  UNL1        0.0557
     37 C         141.0268  143.2986  169.6418 C.3     1  UNL1        0.2525
     38 O         140.3961  142.6666  168.4365 O.3     1  UNL1       -0.4714
@<TRIPOS>BOND
     1    37    38    1
     2    38    26    1
     3    26    27   ar
     4    27    28   ar
     5    28    29   ar
     6    29    30   ar
     7    30    31   ar
     8    31    32   ar
     9    32    33    2
    10    32    34   ar
    11    34    25    1
    12    25    24    1
    13    24     1    1
    14     1     2    1
    15     2     3    1
    16     3     4    1
    17     4     7    1
    18     7     9    1
    19     9    10    1
    20    10    11   ar
    21    11    12   ar
    22    12    13   ar
    23    13    14   ar
    24    14    15   ar
    25    14    16    1
    26    16    17   am
    27    17    18    2
    28    17    19    1
    29    19    20    1
    30     4     5    1
    31     5    22    1
    32    22    23    1
    33     5     6    1
    34    34    35   ar
    35    35    36   ar
    36    36    26   ar
    37    35    29   ar
    38     6     1    1
    39    15    10   ar
    40    20    13    1
    41     7     8    1
    42    16    21    1
@<TRIPOS>MOLECULE
*****
 38 42 0 0 0
SMALL
GASTEIGER

@<TRIPOS>ATOM
      1 N         141.8196  138.1649  163.6445 N.3     1  UNL1       -0.2689
      2 C         142.6851  138.5627  164.8032 C.3     1  UNL1        0.0737
      3 C         143.9309  139.3644  164.5684 C.3     1  UNL1        0.0356
      4 C         144.3113  139.7683  163.1748 C.3     1  UNL1        0.0846
      5 C         143.4458  139.3705  162.0160 C.3     1  UNL1        0.1455
      6 C         142.2000  138.5688  162.2509 C.3     1  UNL1        0.1034
      7 N         145.5571  140.5700  162.9399 N.3     1  UNL1       -0.2915
      8 H         145.7387  140.5448  161.9365 H       1  UNL1        0.1236
      9 C         145.6109  142.0109  163.3536 C.3     1  UNL1        0.1152
     10 C         144.3978  142.8801  163.2034 C.ar    1  UNL1        0.0765
     11 C         143.7126  143.4283  164.4199 C.ar    1  UNL1        0.0193
     12 C         142.4994  144.2976  164.2697 C.ar    1  UNL1        0.0411
     13 C         141.9714  144.6186  162.9029 C.ar    1  UNL1        0.1708
     14 C         142.6566  144.0704  161.6863 C.ar    1  UNL1        0.1682
     15 N         143.8698  143.2012  161.8366 N.ar    1  UNL1       -0.2304
     16 N         142.1286  144.3915  160.3195 N.am    1  UNL1       -0.2639
     17 C         140.9154  145.2608  160.1693 C.2     1  UNL1        0.2718
     18 O         140.3873  145.5818  158.8025 O.2     1  UNL1       -0.2707
     19 C         140.2302  145.8089  161.3859 C.3     1  UNL1        0.2898
     20 O         140.7582  145.4879  162.7527 O.3     1  UNL1       -0.4628
     21 H         142.5783  144.0317  159.5211 H       1  UNL1        0.1565
     22 O         143.8262  139.7745  160.6224 O.3     1  UNL1       -0.3508
     23 C         142.9875  139.3352  159.4589 C.3     1  UNL1        0.1741
     24 C         140.5738  137.3632  163.8794 C.3     1  UNL1        0.0970
     25 C         139.3464  138.0281  164.4283 C.3     1  UNL1        0.1264
     26 C         140.1166  141.9186  166.5546 C.ar    1  UNL1        0.1403
     27 C         139.6320  143.2073  165.9594 C.ar    1  UNL1        0.0385
     28 C         138.8906  143.1992  164.6554 C.ar    1  UNL1        0.0237
     29 C         138.6339  141.9024  163.9467 C.ar    1  UNL1        0.0975
     30 N         137.8925  141.8944  162.6427 N.ar    1  UNL1       -0.2374
     31 C         137.6357  140.5976  161.9340 C.ar    1  UNL1        0.1594
     32 C         138.1204  139.3088  162.5292 C.ar    1  UNL1        0.2803
     33 O         137.8636  138.0120  161.8204 O.2     1  UNL1       -0.2653
     34 N         138.8618  139.3168  163.8331 N.ar    1  UNL1       -0.2913
     35 C         139.1185  140.6137  164.5419 C.ar    1  UNL1        0.0832
     36 C         139.8599  140.6218  165.8458 C.ar    1  UNL1        0.0557
     37 C         140.5996  143.0116  168.8615 C.3     1  UNL1        0.2525
     38 O         140.8580  141.9267  167.8585 O.3     1  UNL1       -0.4714
@<TRIPOS>BOND
     1    37    38    1
     2    38    26    1
     3    26    27   ar
     4    27    28   ar
     5    28    29   ar
     6    29    30   ar
     7    30    31   ar
     8    31    32   ar
     9    32    33    2
    10    32    34   ar
    11    34    25    1
    12    25    24    1
    13    24     1    1
    14     1     2    1
    15     2     3    1
    16     3     4    1
    17     4     7    1
    18     7     9    1
    19     9    10    1
    20    10    11   ar
    21    11    12   ar
    22    12    13   ar
    23    13    14   ar
    24    14    15   ar
    25    14    16    1
    26    16    17   am
    27    17    18    2
    28    17    19    1
    29    19    20    1
    30     4     5    1
    31     5    22    1
    32    22    23    1
    33     5     6    1
    34    34    35   ar
    35    35    36   ar
    36    36    26   ar
    37    35    29   ar
    38     6     1    1
    39    15    10   ar
    40    20    13    1
    41     7     8    1
    42    16    21    1
@<TRIPOS>MOLECULE
*****
 38 42 0 0 0
SMALL
GASTEIGER

@<TRIPOS>ATOM
      1 N         144.5082  140.2800  163.2352 N.3     1  UNL1       -0.2689
      2 C         143.9371  139.3457  164.2603 C.3     1  UNL1        0.0737
      3 C         142.8553  138.3805  163.8754 C.3     1  UNL1        0.0356
      4 C         142.3447  138.3496  162.4654 C.3     1  UNL1        0.0846
      5 C         142.9158  139.2839  161.4403 C.3     1  UNL1        0.1455
      6 C         143.9975  140.2491  161.8252 C.3     1  UNL1        0.1034
      7 N         141.2629  137.3844  162.0804 N.3     1  UNL1       -0.2915
      8 H         141.1497  136.7411  162.8639 H       1  UNL1        0.1236
      9 C         139.8940  137.8909  161.7348 C.3     1  UNL1        0.1152
     10 C         139.3215  139.0663  162.4701 C.ar    1  UNL1        0.0765
     11 C         138.6887  138.8730  163.8163 C.ar    1  UNL1        0.0193
     12 C         138.1161  140.0484  164.5517 C.ar    1  UNL1        0.0411
     13 C         138.1764  141.4171  163.9408 C.ar    1  UNL1        0.1708
     14 C         138.8092  141.6103  162.5946 C.ar    1  UNL1        0.1682
     15 N         139.3817  140.4349  161.8593 N.ar    1  UNL1       -0.2304
     16 N         138.8695  142.9789  161.9837 N.am    1  UNL1       -0.2639
     17 C         138.2970  144.1544  162.7191 C.2     1  UNL1        0.2718
     18 O         138.3572  145.5230  162.1082 O.2     1  UNL1       -0.2707
     19 C         137.6642  143.9611  164.0652 C.3     1  UNL1        0.2898
     20 O         137.6039  142.5924  164.6761 O.3     1  UNL1       -0.4628
     21 H         139.2848  143.1058  161.1001 H       1  UNL1        0.1565
     22 O         142.4051  139.2530  160.0302 O.3     1  UNL1       -0.3508
     23 C         142.8844  138.1941  159.0820 C.3     1  UNL1        0.1741
     24 C         145.5899  141.2452  163.6202 C.3     1  UNL1        0.0970
     25 C         145.2508  142.4781  164.4044 C.3     1  UNL1        0.1264
     26 C         142.2497  141.4475  167.5952 C.ar    1  UNL1        0.1403
     27 C         140.8638  142.0179  167.5336 C.ar    1  UNL1        0.0385
     28 C         140.4782  142.9319  166.4084 C.ar    1  UNL1        0.0237
     29 C         141.4785  143.2754  165.3448 C.ar    1  UNL1        0.0975
     30 N         141.0930  144.1893  164.2196 N.ar    1  UNL1       -0.2374
     31 C         142.0933  144.5329  163.1561 C.ar    1  UNL1        0.1594
     32 C         143.4793  143.9625  163.2176 C.ar    1  UNL1        0.2803
     33 O         144.4796  144.3060  162.1540 O.2     1  UNL1       -0.2653
     34 N         143.8649  143.0485  164.3428 N.ar    1  UNL1       -0.2913
     35 C         142.8644  142.7050  165.4064 C.ar    1  UNL1        0.0832
     36 C         143.2500  141.7910  166.5316 C.ar    1  UNL1        0.0557
     37 C         141.5764  139.9443  169.6044 C.3     1  UNL1        0.2525
     38 O         142.6352  140.5336  168.7204 O.3     1  UNL1       -0.4714
@<TRIPOS>BOND
     1    37    38    1
     2    38    26    1
     3    26    27   ar
     4    27    28   ar
     5    28    29   ar
     6    29    30   ar
     7    30    31   ar
     8    31    32   ar
     9    32    33    2
    10    32    34   ar
    11    34    25    1
    12    25    24    1
    13    24     1    1
    14     1     2    1
    15     2     3    1
    16     3     4    1
    17     4     7    1
    18     7     9    1
    19     9    10    1
    20    10    11   ar
    21    11    12   ar
    22    12    13   ar
    23    13    14   ar
    24    14    15   ar
    25    14    16    1
    26    16    17   am
    27    17    18    2
    28    17    19    1
    29    19    20    1
    30     4     5    1
    31     5    22    1
    32    22    23    1
    33     5     6    1
    34    34    35   ar
    35    35    36   ar
    36    36    26   ar
    37    35    29   ar
    38     6     1    1
    39    15    10   ar
    40    20    13    1
    41     7     8    1
    42    16    21    1
@<TRIPOS>MOLECULE
*****
 38 42 0 0 0
SMALL
GASTEIGER

@<TRIPOS>ATOM
      1 N         139.0157  143.1680  162.6496 N.3     1  UNL1       -0.2689
      2 C         139.6042  143.3637  164.0154 C.3     1  UNL1        0.0737
      3 C         140.9049  144.0937  164.1740 C.3     1  UNL1        0.0356
      4 C         141.6172  144.6280  162.9669 C.3     1  UNL1        0.0846
      5 C         141.0286  144.4323  161.6011 C.3     1  UNL1        0.1455
      6 C         139.7279  143.7024  161.4425 C.3     1  UNL1        0.1034
      7 N         142.9179  145.3580  163.1255 N.3     1  UNL1       -0.2915
      8 H         142.9202  145.7550  164.0651 H       1  UNL1        0.1236
      9 C         144.2152  144.6228  162.9630 C.3     1  UNL1        0.1152
     10 C         144.2228  143.1254  162.8749 C.ar    1  UNL1        0.0765
     11 C         144.5646  142.3048  164.0831 C.ar    1  UNL1        0.0193
     12 C         144.5721  140.8074  163.9950 C.ar    1  UNL1        0.0411
     13 C         144.2379  140.1306  162.6988 C.ar    1  UNL1        0.1708
     14 C         143.8961  140.9513  161.4906 C.ar    1  UNL1        0.1682
     15 N         143.8885  142.4487  161.5786 N.ar    1  UNL1       -0.2304
     16 N         143.5618  140.2746  160.1943 N.am    1  UNL1       -0.2639
     17 C         143.5694  138.7771  160.1063 C.2     1  UNL1        0.2718
     18 O         143.2351  138.1004  158.8100 O.2     1  UNL1       -0.2707
     19 C         143.9111  137.9565  161.3145 C.3     1  UNL1        0.2898
     20 O         144.2454  138.6333  162.6107 O.3     1  UNL1       -0.4628
     21 H         143.3375  140.8132  159.4013 H       1  UNL1        0.1565
     22 O         141.7409  144.9667  160.3939 O.3     1  UNL1       -0.3508
     23 C         141.0268  145.0498  159.0775 C.3     1  UNL1        0.1741
     24 C         137.7149  142.4380  162.4910 C.3     1  UNL1        0.0970
     25 C         137.5340  141.0845  163.1117 C.3     1  UNL1        0.1264
     26 C         140.7204  139.5890  165.9153 C.ar    1  UNL1        0.1403
     27 C         141.6068  138.4509  165.5045 C.ar    1  UNL1        0.0385
     28 C         141.4312  137.8113  164.1591 C.ar    1  UNL1        0.0237
     29 C         140.3691  138.3098  163.2246 C.ar    1  UNL1        0.0975
     30 N         140.1934  137.6701  161.8792 N.ar    1  UNL1       -0.2374
     31 C         139.1313  138.1686  160.9447 C.ar    1  UNL1        0.1594
     32 C         138.2448  139.3068  161.3555 C.ar    1  UNL1        0.2803
     33 O         137.1827  139.8052  160.4210 O.2     1  UNL1       -0.2653
     34 N         138.4204  139.9464  162.7009 N.ar    1  UNL1       -0.2913
     35 C         139.4826  139.4479  163.6354 C.ar    1  UNL1        0.0832
     36 C         139.6583  140.0875  164.9808 C.ar    1  UNL1        0.0557
     37 C         139.8149  140.1114  168.2938 C.3     1  UNL1        0.2525
     38 O         140.8960  140.2287  167.2607 O.3     1  UNL1       -0.4714
@<TRIPOS>BOND
     1    37    38    1
     2    38    26    1
     3    26    27   ar
     4    27    28   ar
     5    28    29   ar
     6    29    30   ar
     7    30    31   ar
     8    31    32   ar
     9    32    33    2
    10    32    34   ar
    11    34    25    1
    12    25    24    1
    13    24     1    1
    14     1     2    1
    15     2     3    1
    16     3     4    1
    17     4     7    1
    18     7     9    1
    19     9    10    1
    20    10    11   ar
    21    11    12   ar
    22    12    13   ar
    23    13    14   ar
    24    14    15   ar
    25    14    16    1
    26    16    17   am
    27    17    18    2
    28    17    19    1
    29    19    20    1
    30     4     5    1
    31     5    22    1
    32    22    23    1
    33     5     6    1
    34    34    35   ar
    35    35    36   ar
    36    36    26   ar
    37    35    29   ar
    38     6     1    1
    39    15    10   ar
    40    20    13    1
    41     7     8    1
    42    16    21    1
@<TRIPOS>MOLECULE
*****
 38 42 0 0 0
SMALL
GASTEIGER

@<TRIPOS>ATOM
      1 N         143.6469  142.0458  163.9020 N.3     1  UNL1       -0.2689
      2 C         142.8806  142.7449  164.9856 C.3     1  UNL1        0.0737
      3 C         142.0862  143.9768  164.6673 C.3     1  UNL1        0.0356
      4 C         142.0581  144.5096  163.2655 C.3     1  UNL1        0.0846
      5 C         142.8244  143.8106  162.1819 C.3     1  UNL1        0.1455
      6 C         143.6188  142.5787  162.5002 C.3     1  UNL1        0.1034
      7 N         141.2637  145.7416  162.9472 N.3     1  UNL1       -0.2915
      8 H         141.6837  146.1559  162.1151 H       1  UNL1        0.1236
      9 C         139.7910  145.6368  162.6825 C.3     1  UNL1        0.1152
     10 C         139.1666  144.2951  162.4379 C.ar    1  UNL1        0.0765
     11 C         138.4920  143.5657  163.5617 C.ar    1  UNL1        0.0193
     12 C         137.8676  142.2239  163.3171 C.ar    1  UNL1        0.0411
     13 C         137.9178  141.6115  161.9488 C.ar    1  UNL1        0.1708
     14 C         138.5924  142.3410  160.8249 C.ar    1  UNL1        0.1682
     15 N         139.2168  143.6827  161.0695 N.ar    1  UNL1       -0.2304
     16 N         138.6426  141.7286  159.4565 N.am    1  UNL1       -0.2639
     17 C         138.0181  140.3868  159.2120 C.2     1  UNL1        0.2718
     18 O         138.0683  139.7745  157.8436 O.2     1  UNL1       -0.2707
     19 C         137.3435  139.6575  160.3358 C.3     1  UNL1        0.2898
     20 O         137.2934  140.2698  161.7041 O.3     1  UNL1       -0.4628
     21 H         139.0853  142.2073  158.7190 H       1  UNL1        0.1565
     22 O         142.7963  144.3436  160.7800 O.3     1  UNL1       -0.3508
     23 C         142.5407  143.4153  159.6298 C.3     1  UNL1        0.1741
     24 C         144.4413  140.8139  164.2203 C.3     1  UNL1        0.0970
     25 C         143.7501  139.5910  164.7467 C.3     1  UNL1        0.1264
     26 C         139.7127  139.9777  166.6959 C.ar    1  UNL1        0.1403
     27 C         138.4917  139.4495  166.0030 C.ar    1  UNL1        0.0385
     28 C         138.6165  138.7925  164.6604 C.ar    1  UNL1        0.0237
     29 C         139.9623  138.6636  164.0106 C.ar    1  UNL1        0.0975
     30 N         140.0871  138.0065  162.6680 N.ar    1  UNL1       -0.2374
     31 C         141.4328  137.8776  162.0182 C.ar    1  UNL1        0.1594
     32 C         142.6539  138.4058  162.7111 C.ar    1  UNL1        0.2803
     33 O         143.9997  138.2769  162.0614 O.2     1  UNL1       -0.2653
     34 N         142.5292  139.0629  164.0538 N.ar    1  UNL1       -0.2913
     35 C         141.1833  139.1917  164.7035 C.ar    1  UNL1        0.0832
     36 C         141.0585  139.8488  166.0462 C.ar    1  UNL1        0.0557
     37 C         140.4370  141.8253  168.3728 C.3     1  UNL1        0.2525
     38 O         139.5879  140.6348  168.0386 O.3     1  UNL1       -0.4714
@<TRIPOS>BOND
     1    37    38    1
     2    38    26    1
     3    26    27   ar
     4    27    28   ar
     5    28    29   ar
     6    29    30   ar
     7    30    31   ar
     8    31    32   ar
     9    32    33    2
    10    32    34   ar
    11    34    25    1
    12    25    24    1
    13    24     1    1
    14     1     2    1
    15     2     3    1
    16     3     4    1
    17     4     7    1
    18     7     9    1
    19     9    10    1
    20    10    11   ar
    21    11    12   ar
    22    12    13   ar
    23    13    14   ar
    24    14    15   ar
    25    14    16    1
    26    16    17   am
    27    17    18    2
    28    17    19    1
    29    19    20    1
    30     4     5    1
    31     5    22    1
    32    22    23    1
    33     5     6    1
    34    34    35   ar
    35    35    36   ar
    36    36    26   ar
    37    35    29   ar
    38     6     1    1
    39    15    10   ar
    40    20    13    1
    41     7     8    1
    42    16    21    1
@<TRIPOS>MOLECULE
*****
 38 42 0 0 0
SMALL
GASTEIGER

@<TRIPOS>ATOM
      1 N         141.1940  144.7836  162.8833 N.3     1  UNL1       -0.2689
      2 C         142.2388  144.7645  163.9594 C.3     1  UNL1        0.0737
      3 C         143.5916  144.1794  163.6809 C.3     1  UNL1        0.0356
      4 C         143.8996  143.6135  162.3264 C.3     1  UNL1        0.0846
      5 C         142.8547  143.6327  161.2503 C.3     1  UNL1        0.1455
      6 C         141.5019  144.2177  161.5288 C.3     1  UNL1        0.1034
      7 N         145.2525  143.0284  162.0478 N.3     1  UNL1       -0.2915
      8 H         145.9364  143.7561  162.2554 H       1  UNL1        0.1236
      9 C         145.6997  141.7942  162.7736 C.3     1  UNL1        0.1152
     10 C         144.6979  140.7464  163.1591 C.ar    1  UNL1        0.0765
     11 C         144.8291  140.0299  164.4703 C.ar    1  UNL1        0.0193
     12 C         143.8273  138.9821  164.8559 C.ar    1  UNL1        0.0411
     13 C         142.6945  138.6509  163.9303 C.ar    1  UNL1        0.1708
     14 C         142.5633  139.3675  162.6190 C.ar    1  UNL1        0.1682
     15 N         143.5650  140.4152  162.2334 N.ar    1  UNL1       -0.2304
     16 N         141.4304  139.0363  161.6933 N.am    1  UNL1       -0.2639
     17 C         140.4287  137.9884  162.0789 C.2     1  UNL1        0.2718
     18 O         139.2958  137.6572  161.1533 O.2     1  UNL1       -0.2707
     19 C         140.5598  137.2719  163.3902 C.3     1  UNL1        0.2898
     20 O         141.6927  137.6031  164.3158 O.3     1  UNL1       -0.4628
     21 H         141.3443  139.5066  160.8327 H       1  UNL1        0.1565
     22 O         143.1628  143.0667  159.8957 O.3     1  UNL1       -0.3508
     23 C         142.2441  142.0535  159.2796 C.3     1  UNL1        0.1741
     24 C         139.8411  145.3687  163.1619 C.3     1  UNL1        0.0970
     25 C         138.9032  144.6742  164.1042 C.3     1  UNL1        0.1264
     26 C         140.5258  142.0983  167.4181 C.ar    1  UNL1        0.1403
     27 C         140.3672  140.6080  167.3558 C.ar    1  UNL1        0.0385
     28 C         139.6677  139.9764  166.1888 C.ar    1  UNL1        0.0237
     29 C         139.1269  140.8350  165.0842 C.ar    1  UNL1        0.0975
     30 N         138.4274  140.2033  163.9172 N.ar    1  UNL1       -0.2374
     31 C         137.8866  141.0619  162.8126 C.ar    1  UNL1        0.1594
     32 C         138.0451  142.5523  162.8749 C.ar    1  UNL1        0.2803
     33 O         137.5043  143.4109  161.7703 O.2     1  UNL1       -0.2653
     34 N         138.7446  143.1839  164.0419 N.ar    1  UNL1       -0.2913
     35 C         139.2855  142.3252  165.1465 C.ar    1  UNL1        0.0832
     36 C         139.9849  142.9569  166.3135 C.ar    1  UNL1        0.0557
     37 C         142.6747  142.4386  168.8380 C.3     1  UNL1        0.2525
     38 O         141.2252  142.7299  168.5851 O.3     1  UNL1       -0.4714
@<TRIPOS>BOND
     1    37    38    1
     2    38    26    1
     3    26    27   ar
     4    27    28   ar
     5    28    29   ar
     6    29    30   ar
     7    30    31   ar
     8    31    32   ar
     9    32    33    2
    10    32    34   ar
    11    34    25    1
    12    25    24    1
    13    24     1    1
    14     1     2    1
    15     2     3    1
    16     3     4    1
    17     4     7    1
    18     7     9    1
    19     9    10    1
    20    10    11   ar
    21    11    12   ar
    22    12    13   ar
    23    13    14   ar
    24    14    15   ar
    25    14    16    1
    26    16    17   am
    27    17    18    2
    28    17    19    1
    29    19    20    1
    30     4     5    1
    31     5    22    1
    32    22    23    1
    33     5     6    1
    34    34    35   ar
    35    35    36   ar
    36    36    26   ar
    37    35    29   ar
    38     6     1    1
    39    15    10   ar
    40    20    13    1
    41     7     8    1
    42    16    21    1
@<TRIPOS>MOLECULE
*****
 38 42 0 0 0
SMALL
GASTEIGER

@<TRIPOS>ATOM
      1 N         140.6941  140.0872  160.4835 N.3     1  UNL1       -0.2689
      2 C         141.3559  138.8082  160.9034 C.3     1  UNL1        0.0737
      3 C         142.7363  138.8353  161.4896 C.3     1  UNL1        0.0356
      4 C         143.4549  140.1413  161.6560 C.3     1  UNL1        0.0846
      5 C         142.7932  141.4203  161.2360 C.3     1  UNL1        0.1455
      6 C         141.4128  141.3932  160.6498 C.3     1  UNL1        0.1034
      7 N         144.8354  140.1685  162.2423 N.3     1  UNL1       -0.2915
      8 H         145.2376  141.0757  162.0065 H       1  UNL1        0.1236
      9 C         145.0273  139.9800  163.7179 C.3     1  UNL1        0.1152
     10 C         144.1033  140.6563  164.6868 C.ar    1  UNL1        0.0765
     11 C         144.2133  142.1337  164.9214 C.ar    1  UNL1        0.0193
     12 C         143.2893  142.8101  165.8904 C.ar    1  UNL1        0.0411
     13 C         142.2554  142.0091  166.6247 C.ar    1  UNL1        0.1708
     14 C         142.1454  140.5316  166.3900 C.ar    1  UNL1        0.1682
     15 N         143.0694  139.8552  165.4211 N.ar    1  UNL1       -0.2304
     16 N         141.1115  139.7305  167.1243 N.am    1  UNL1       -0.2639
     17 C         140.1875  140.4069  168.0933 C.2     1  UNL1        0.2718
     18 O         139.1535  139.6058  168.8276 O.2     1  UNL1       -0.2707
     19 C         140.2975  141.8843  168.3279 C.3     1  UNL1        0.2898
     20 O         141.3314  142.6854  167.5936 O.3     1  UNL1       -0.4628
     21 H         141.0393  138.7608  166.9703 H       1  UNL1        0.1565
     22 O         143.5119  142.7264  161.4024 O.3     1  UNL1       -0.3508
     23 C         142.7863  143.9165  161.9567 C.3     1  UNL1        0.1741
     24 C         139.3137  140.0600  159.8972 C.3     1  UNL1        0.0970
     25 C         138.1277  140.3859  160.7558 C.3     1  UNL1        0.1264
     26 C         138.5027  144.3578  162.8374 C.ar    1  UNL1        0.1403
     27 C         138.6490  144.4118  164.3293 C.ar    1  UNL1        0.0385
     28 C         138.6703  143.1419  165.1272 C.ar    1  UNL1        0.0237
     29 C         138.5453  141.8179  164.4334 C.ar    1  UNL1        0.0975
     30 N         138.5666  140.5480  165.2314 N.ar    1  UNL1       -0.2374
     31 C         138.4416  139.2240  164.5375 C.ar    1  UNL1        0.1594
     32 C         138.2953  139.1699  163.0456 C.ar    1  UNL1        0.2803
     33 O         138.1703  137.8460  162.3518 O.2     1  UNL1       -0.2653
     34 N         138.2740  140.4399  162.2476 N.ar    1  UNL1       -0.2913
     35 C         138.3990  141.7639  162.9416 C.ar    1  UNL1        0.0832
     36 C         138.3777  143.0338  162.1436 C.ar    1  UNL1        0.0557
     37 C         139.7687  146.3036  161.6708 C.3     1  UNL1        0.2525
     38 O         138.4814  145.6277  162.0394 O.3     1  UNL1       -0.4714
@<TRIPOS>BOND
     1    37    38    1
     2    38    26    1
     3    26    27   ar
     4    27    28   ar
     5    28    29   ar
     6    29    30   ar
     7    30    31   ar
     8    31    32   ar
     9    32    33    2
    10    32    34   ar
    11    34    25    1
    12    25    24    1
    13    24     1    1
    14     1     2    1
    15     2     3    1
    16     3     4    1
    17     4     7    1
    18     7     9    1
    19     9    10    1
    20    10    11   ar
    21    11    12   ar
    22    12    13   ar
    23    13    14   ar
    24    14    15   ar
    25    14    16    1
    26    16    17   am
    27    17    18    2
    28    17    19    1
    29    19    20    1
    30     4     5    1
    31     5    22    1
    32    22    23    1
    33     5     6    1
    34    34    35   ar
    35    35    36   ar
    36    36    26   ar
    37    35    29   ar
    38     6     1    1
    39    15    10   ar
    40    20    13    1
    41     7     8    1
    42    16    21    1
@<TRIPOS>MOLECULE
*****
 38 42 0 0 0
SMALL
GASTEIGER

@<TRIPOS>ATOM
      1 N         141.0556  138.6278  162.9671 N.3     1  UNL1       -0.2689
      2 C         141.5093  139.2612  161.6853 C.3     1  UNL1        0.0737
      3 C         142.8972  139.8194  161.5747 C.3     1  UNL1        0.0356
      4 C         143.8312  139.7442  162.7460 C.3     1  UNL1        0.0846
      5 C         143.3775  139.1109  164.0277 C.3     1  UNL1        0.1455
      6 C         141.9896  138.5527  164.1383 C.3     1  UNL1        0.1034
      7 N         145.2192  140.3025  162.6355 N.3     1  UNL1       -0.2915
      8 H         145.5376  140.1137  161.6850 H       1  UNL1        0.1236
      9 C         145.4641  141.7598  162.8928 C.3     1  UNL1        0.1152
     10 C         144.3122  142.7201  162.9222 C.ar    1  UNL1        0.0765
     11 C         143.8469  143.2934  164.2278 C.ar    1  UNL1        0.0193
     12 C         142.6950  144.2538  164.2572 C.ar    1  UNL1        0.0411
     13 C         142.0084  144.6409  162.9810 C.ar    1  UNL1        0.1708
     14 C         142.4738  144.0675  161.6753 C.ar    1  UNL1        0.1682
     15 N         143.6257  143.1072  161.6459 N.ar    1  UNL1       -0.2304
     16 N         141.7873  144.4546  160.3990 N.am    1  UNL1       -0.2639
     17 C         140.6353  145.4150  160.4284 C.2     1  UNL1        0.2718
     18 O         139.9488  145.8021  159.1522 O.2     1  UNL1       -0.2707
     19 C         140.1700  145.9883  161.7341 C.3     1  UNL1        0.2898
     20 O         140.8566  145.6012  163.0104 O.3     1  UNL1       -0.4628
     21 H         142.0927  144.0783  159.5421 H       1  UNL1        0.1565
     22 O         144.3116  139.0357  165.1990 O.3     1  UNL1       -0.3508
     23 C         143.9760  138.1620  166.3712 C.3     1  UNL1        0.1741
     24 C         139.6676  138.0696  163.0776 C.3     1  UNL1        0.0970
     25 C         138.6066  138.8371  163.8091 C.3     1  UNL1        0.1264
     26 C         140.2392  141.5009  167.0477 C.ar    1  UNL1        0.1403
     27 C         140.1585  142.9918  166.9042 C.ar    1  UNL1        0.0385
     28 C         139.5335  143.5948  165.6812 C.ar    1  UNL1        0.0237
     29 C         138.9893  142.7069  164.6016 C.ar    1  UNL1        0.0975
     30 N         138.3644  143.3099  163.3786 N.ar    1  UNL1       -0.2374
     31 C         137.8202  142.4220  162.2990 C.ar    1  UNL1        0.1594
     32 C         137.9009  140.9310  162.4425 C.ar    1  UNL1        0.2803
     33 O         137.3568  140.0431  161.3630 O.2     1  UNL1       -0.2653
     34 N         138.5259  140.3280  163.6656 N.ar    1  UNL1       -0.2913
     35 C         139.0701  141.2160  164.7452 C.ar    1  UNL1        0.0832
     36 C         139.6950  140.6130  165.9682 C.ar    1  UNL1        0.0557
     37 C         142.3574  140.8215  168.3900 C.3     1  UNL1        0.2525
     38 O         140.8641  140.8979  168.2708 O.3     1  UNL1       -0.4714
@<TRIPOS>BOND
     1    37    38    1
     2    38    26    1
     3    26    27   ar
     4    27    28   ar
     5    28    29   ar
     6    29    30   ar
     7    30    31   ar
     8    31    32   ar
     9    32    33    2
    10    32    34   ar
    11    34    25    1
    12    25    24    1
    13    24     1    1
    14     1     2    1
    15     2     3    1
    16     3     4    1
    17     4     7    1
    18     7     9    1
    19     9    10    1
    20    10    11   ar
    21    11    12   ar
    22    12    13   ar
    23    13    14   ar
    24    14    15   ar
    25    14    16    1
    26    16    17   am
    27    17    18    2
    28    17    19    1
    29    19    20    1
    30     4     5    1
    31     5    22    1
    32    22    23    1
    33     5     6    1
    34    34    35   ar
    35    35    36   ar
    36    36    26   ar
    37    35    29   ar
    38     6     1    1
    39    15    10   ar
    40    20    13    1
    41     7     8    1
    42    16    21    1
