@<TRIPOS>MOLECULE
*****
 32 36 0 0 0
SMALL
GASTEIGER

@<TRIPOS>ATOM
      1 C         143.1370  138.1776  159.7773 C.ar    1  UNL1        0.1233
      2 C         142.7542  136.8932  159.1037 C.ar    1  UNL1        0.1180
      3 N         142.9569  137.0657  157.6275 N.ar    1  UNL1       -0.2233
      4 N         143.4650  138.4567  157.3888 N.ar    1  UNL1       -0.0634
      5 N         143.5763  139.1439  158.7175 N.ar    1  UNL1       -0.1287
      6 C         142.6972  136.0291  156.5748 C.3     1  UNL1        0.1831
      7 C         143.6073  134.8369  156.5968 C.3     1  UNL1        0.0385
      8 C         143.6065  133.6430  155.6887 C.3     1  UNL1        0.0301
      9 C         142.6957  133.3464  154.5344 C.ar    1  UNL1       -0.0086
     10 C         143.0384  132.0367  153.8884 C.ar    1  UNL1       -0.0030
     11 C         142.2459  131.5511  152.7111 C.ar    1  UNL1       -0.0002
     12 C         141.1107  132.3752  152.1798 C.ar    1  UNL1        0.0013
     13 C         140.7681  133.6849  152.8257 C.ar    1  UNL1        0.0144
     14 C         141.5606  134.1705  154.0030 C.ar    1  UNL1        0.0463
     15 N         141.0560  135.4947  154.4948 N.am    1  UNL1       -0.2826
     16 C         141.5617  136.3219  155.6393 C.2     1  UNL1        0.2486
     17 O         140.8362  137.6124  155.8802 O.2     1  UNL1       -0.2727
     18 H         140.2917  135.8706  154.0011 H       1  UNL1        0.1549
     19 C         144.1603  139.4656  163.3889 C.ar    1  UNL1        0.1547
     20 C         144.2085  139.1951  161.9144 C.ar    1  UNL1        0.0400
     21 C         143.0889  138.4482  161.2519 C.ar    1  UNL1        0.0241
     22 C         141.9213  137.9718  162.0641 C.ar    1  UNL1        0.0033
     23 C         141.8732  138.2424  163.5387 C.ar    1  UNL1        0.0207
     24 C         142.9927  138.9893  164.2011 C.ar    1  UNL1        0.0994
     25 N         142.9445  139.2598  165.6758 N.ar    1  UNL1       -0.2839
     26 C         143.3609  138.3109  166.7604 C.ar    1  UNL1        0.1826
     27 N         143.1452  138.9915  168.0795 N.ar    1  UNL1       -0.2280
     28 C         142.5956  140.3609  167.8104 C.ar    1  UNL1        0.0786
     29 C         142.2336  141.3847  168.8451 C.3     1  UNL1        0.0538
     30 C         142.4716  140.5268  166.3247 C.ar    1  UNL1        0.0963
     31 C         145.6465  141.5881  163.5789 C.3     1  UNL1        0.2525
     32 O         145.2799  140.2125  164.0513 O.3     1  UNL1       -0.4700
@<TRIPOS>BOND
     1    31    32    1
     2    32    19    1
     3    19    20   ar
     4    20    21   ar
     5    21     1    1
     6     1     2   ar
     7     2     3   ar
     8     3     6    1
     9     6     7    1
    10     7     8    1
    11     8     9    1
    12     9    10   ar
    13    10    11   ar
    14    11    12   ar
    15    12    13   ar
    16    13    14   ar
    17    14    15    1
    18    15    16   am
    19    16    17    2
    20     3     4   ar
    21     4     5   ar
    22    21    22   ar
    23    22    23   ar
    24    23    24   ar
    25    24    25    1
    26    25    26   ar
    27    26    27   ar
    28    27    28   ar
    29    28    29    1
    30    28    30   ar
    31    24    19   ar
    32    30    25   ar
    33     5     1   ar
    34    16     6    1
    35    14     9   ar
    36    15    18    1
@<TRIPOS>MOLECULE
*****
 32 36 0 0 0
SMALL
GASTEIGER

@<TRIPOS>ATOM
      1 C         142.7990  138.9393  158.2789 C.ar    1  UNL1        0.1233
      2 C         142.2950  137.5265  158.2894 C.ar    1  UNL1        0.1180
      3 N         142.9187  136.8032  157.1328 N.ar    1  UNL1       -0.2233
      4 N         143.8081  137.7690  156.4074 N.ar    1  UNL1       -0.0634
      5 N         143.7342  139.0891  157.1158 N.ar    1  UNL1       -0.1287
      6 C         142.6926  135.3665  156.7659 C.3     1  UNL1        0.1831
      7 C         143.5915  134.3732  157.4408 C.3     1  UNL1        0.0385
      8 C         143.6172  132.8811  157.2890 C.3     1  UNL1        0.0301
      9 C         142.7506  132.0137  156.4250 C.ar    1  UNL1       -0.0086
     10 C         143.1081  130.5642  156.5701 C.ar    1  UNL1       -0.0030
     11 C         142.3590  129.5253  155.7895 C.ar    1  UNL1       -0.0002
     12 C         141.2524  129.9358  154.8638 C.ar    1  UNL1        0.0013
     13 C         140.8950  131.3853  154.7186 C.ar    1  UNL1        0.0144
     14 C         141.6440  132.4243  155.4992 C.ar    1  UNL1        0.0463
     15 N         141.1309  133.8036  155.2089 N.am    1  UNL1       -0.2826
     16 C         141.5975  135.1130  155.7726 C.2     1  UNL1        0.2486
     17 O         140.8733  136.3297  155.2776 O.2     1  UNL1       -0.2727
     18 H         140.3898  133.8564  154.5630 H       1  UNL1        0.1549
     19 C         142.8081  141.2039  161.5379 C.ar    1  UNL1        0.1547
     20 C         143.1749  140.1297  160.5575 C.ar    1  UNL1        0.0400
     21 C         142.4321  140.0135  159.2595 C.ar    1  UNL1        0.0241
     22 C         141.3225  140.9716  158.9420 C.ar    1  UNL1        0.0033
     23 C         140.9557  142.0458  159.9225 C.ar    1  UNL1        0.0207
     24 C         141.6985  142.1620  161.2204 C.ar    1  UNL1        0.0994
     25 N         141.3316  143.2363  162.2010 N.ar    1  UNL1       -0.2839
     26 C         142.0671  144.5266  162.4114 C.ar    1  UNL1        0.1826
     27 N         141.3549  145.2965  163.4836 N.ar    1  UNL1       -0.2280
     28 C         140.1792  144.4823  163.9359 C.ar    1  UNL1        0.0786
     29 C         139.1913  144.8727  164.9951 C.3     1  UNL1        0.0538
     30 C         140.1648  143.2089  163.1432 C.ar    1  UNL1        0.0963
     31 C         144.8900  141.9947  162.8759 C.3     1  UNL1        0.2525
     32 O         143.5509  141.3201  162.8359 O.3     1  UNL1       -0.4700
@<TRIPOS>BOND
     1    31    32    1
     2    32    19    1
     3    19    20   ar
     4    20    21   ar
     5    21     1    1
     6     1     2   ar
     7     2     3   ar
     8     3     6    1
     9     6     7    1
    10     7     8    1
    11     8     9    1
    12     9    10   ar
    13    10    11   ar
    14    11    12   ar
    15    12    13   ar
    16    13    14   ar
    17    14    15    1
    18    15    16   am
    19    16    17    2
    20     3     4   ar
    21     4     5   ar
    22    21    22   ar
    23    22    23   ar
    24    23    24   ar
    25    24    25    1
    26    25    26   ar
    27    26    27   ar
    28    27    28   ar
    29    28    29    1
    30    28    30   ar
    31    24    19   ar
    32    30    25   ar
    33     5     1   ar
    34    16     6    1
    35    14     9   ar
    36    15    18    1
@<TRIPOS>MOLECULE
*****
 32 36 0 0 0
SMALL
GASTEIGER

@<TRIPOS>ATOM
      1 C         143.0312  138.0494  159.8018 C.ar    1  UNL1        0.1233
      2 C         142.6666  136.7834  159.0846 C.ar    1  UNL1        0.1180
      3 N         142.8931  137.0000  157.6177 N.ar    1  UNL1       -0.2233
      4 N         143.3977  138.3998  157.4283 N.ar    1  UNL1       -0.0634
      5 N         143.4830  139.0484  158.7782 N.ar    1  UNL1       -0.1287
      6 C         142.6565  135.9935  156.5309 C.3     1  UNL1        0.1831
      7 C         143.5466  134.7864  156.5569 C.3     1  UNL1        0.0385
      8 C         143.5611  133.6149  155.6202 C.3     1  UNL1        0.0301
      9 C         142.6891  133.3610  154.4263 C.ar    1  UNL1       -0.0086
     10 C         143.0352  132.0618  153.7613 C.ar    1  UNL1       -0.0030
     11 C         142.2794  131.6177  152.5441 C.ar    1  UNL1       -0.0002
     12 C         141.1776  132.4728  151.9920 C.ar    1  UNL1        0.0013
     13 C         140.8315  133.7720  152.6571 C.ar    1  UNL1        0.0144
     14 C         141.5873  134.2161  153.8742 C.ar    1  UNL1        0.0463
     15 N         141.0853  135.5362  154.3797 N.am    1  UNL1       -0.2826
     16 C         141.5611  136.3272  155.5620 C.2     1  UNL1        0.2486
     17 O         140.8472  137.6232  155.8079 O.2     1  UNL1       -0.2727
     18 H         140.3457  135.9363  153.8677 H       1  UNL1        0.1549
     19 C         141.7450  137.9291  163.5542 C.ar    1  UNL1        0.1547
     20 C         141.8191  137.7020  162.0734 C.ar    1  UNL1        0.0400
     21 C         142.9570  138.2764  161.2827 C.ar    1  UNL1        0.0241
     22 C         144.0206  139.0779  161.9727 C.ar    1  UNL1        0.0033
     23 C         143.9464  139.3050  163.4536 C.ar    1  UNL1        0.0207
     24 C         142.8086  138.7306  164.2443 C.ar    1  UNL1        0.0994
     25 N         142.7345  138.9577  165.7252 N.ar    1  UNL1       -0.2839
     26 C         143.5807  138.2835  166.7641 C.ar    1  UNL1        0.1826
     27 N         143.1703  138.8080  168.1081 N.ar    1  UNL1       -0.2280
     28 C         142.0703  139.8063  167.8999 C.ar    1  UNL1        0.0786
     29 C         141.3638  140.5769  168.9756 C.3     1  UNL1        0.0538
     30 C         141.8010  139.8988  166.4272 C.ar    1  UNL1        0.0963
     31 C         139.2336  137.9442  164.2196 C.3     1  UNL1        0.2525
     32 O         140.6071  137.3546  164.3450 O.3     1  UNL1       -0.4700
@<TRIPOS>BOND
     1    31    32    1
     2    32    19    1
     3    19    20   ar
     4    20    21   ar
     5    21     1    1
     6     1     2   ar
     7     2     3   ar
     8     3     6    1
     9     6     7    1
    10     7     8    1
    11     8     9    1
    12     9    10   ar
    13    10    11   ar
    14    11    12   ar
    15    12    13   ar
    16    13    14   ar
    17    14    15    1
    18    15    16   am
    19    16    17    2
    20     3     4   ar
    21     4     5   ar
    22    21    22   ar
    23    22    23   ar
    24    23    24   ar
    25    24    25    1
    26    25    26   ar
    27    26    27   ar
    28    27    28   ar
    29    28    29    1
    30    28    30   ar
    31    24    19   ar
    32    30    25   ar
    33     5     1   ar
    34    16     6    1
    35    14     9   ar
    36    15    18    1
@<TRIPOS>MOLECULE
*****
 32 36 0 0 0
SMALL
GASTEIGER

@<TRIPOS>ATOM
      1 C         141.0477  139.3845  160.3034 C.ar    1  UNL1        0.1233
      2 C         141.1412  138.8825  161.7138 C.ar    1  UNL1        0.1180
      3 N         140.9521  140.0509  162.6352 N.ar    1  UNL1       -0.2233
      4 N         140.7417  141.2750  161.7943 N.ar    1  UNL1       -0.0634
      5 N         140.8008  140.8632  160.3531 N.ar    1  UNL1       -0.1287
      6 C         140.9702  140.0035  164.1344 C.3     1  UNL1        0.1831
      7 C         142.3024  139.7147  164.7603 C.3     1  UNL1        0.0385
      8 C         142.6471  139.6023  166.2159 C.3     1  UNL1        0.0301
      9 C         141.7448  139.7508  167.4049 C.ar    1  UNL1       -0.0086
     10 C         142.4954  139.5609  168.6896 C.ar    1  UNL1       -0.0030
     11 C         141.7761  139.6686  170.0014 C.ar    1  UNL1       -0.0002
     12 C         140.3062  139.9663  170.0286 C.ar    1  UNL1        0.0013
     13 C         139.5556  140.1561  168.7439 C.ar    1  UNL1        0.0144
     14 C         140.2749  140.0484  167.4321 C.ar    1  UNL1        0.0463
     15 N         139.3443  140.2710  166.2769 N.am    1  UNL1       -0.2826
     16 C         139.6536  140.2510  164.8093 C.2     1  UNL1        0.2486
     17 O         138.4932  140.5133  163.8959 O.2     1  UNL1       -0.2727
     18 H         138.4063  140.4545  166.5132 H       1  UNL1        0.1549
     19 C         140.1128  137.4878  156.9451 C.ar    1  UNL1        0.1547
     20 C         139.9822  138.3186  158.1871 C.ar    1  UNL1        0.0400
     21 C         141.1782  138.5537  159.0613 C.ar    1  UNL1        0.0241
     22 C         142.5048  137.9580  158.6935 C.ar    1  UNL1        0.0033
     23 C         142.6353  137.1272  157.4514 C.ar    1  UNL1        0.0207
     24 C         141.4393  136.8921  156.5773 C.ar    1  UNL1        0.0994
     25 N         141.5699  136.0612  155.3352 N.ar    1  UNL1       -0.2839
     26 C         141.8502  136.5770  153.9548 C.ar    1  UNL1        0.1826
     27 N         141.8966  135.4033  153.0220 N.ar    1  UNL1       -0.2280
     28 C         141.6450  134.1621  153.8258 C.ar    1  UNL1        0.0786
     29 C         141.6028  132.7604  153.2935 C.3     1  UNL1        0.0538
     30 C         141.4431  134.5687  155.2555 C.ar    1  UNL1        0.0963
     31 C         138.5869  138.2219  154.9746 C.3     1  UNL1        0.2525
     32 O         138.9167  137.2527  156.0709 O.3     1  UNL1       -0.4700
@<TRIPOS>BOND
     1    31    32    1
     2    32    19    1
     3    19    20   ar
     4    20    21   ar
     5    21     1    1
     6     1     2   ar
     7     2     3   ar
     8     3     6    1
     9     6     7    1
    10     7     8    1
    11     8     9    1
    12     9    10   ar
    13    10    11   ar
    14    11    12   ar
    15    12    13   ar
    16    13    14   ar
    17    14    15    1
    18    15    16   am
    19    16    17    2
    20     3     4   ar
    21     4     5   ar
    22    21    22   ar
    23    22    23   ar
    24    23    24   ar
    25    24    25    1
    26    25    26   ar
    27    26    27   ar
    28    27    28   ar
    29    28    29    1
    30    28    30   ar
    31    24    19   ar
    32    30    25   ar
    33     5     1   ar
    34    16     6    1
    35    14     9   ar
    36    15    18    1
@<TRIPOS>MOLECULE
*****
 32 36 0 0 0
SMALL
GASTEIGER

@<TRIPOS>ATOM
      1 C         142.9097  138.8163  158.0910 C.ar    1  UNL1        0.1233
      2 C         142.3976  137.4070  158.1323 C.ar    1  UNL1        0.1180
      3 N         142.9962  136.6621  156.9760 N.ar    1  UNL1       -0.2233
      4 N         143.8782  137.6111  156.2201 N.ar    1  UNL1       -0.0634
      5 N         143.8248  138.9424  156.9091 N.ar    1  UNL1       -0.1287
      6 C         142.7551  135.2213  156.6355 C.3     1  UNL1        0.1831
      7 C         143.6266  134.2297  157.3477 C.3     1  UNL1        0.0385
      8 C         143.6325  132.7345  157.2280 C.3     1  UNL1        0.0301
      9 C         142.7686  131.8616  156.3667 C.ar    1  UNL1       -0.0086
     10 C         143.1015  130.4104  156.5490 C.ar    1  UNL1       -0.0030
     11 C         142.3510  129.3661  155.7769 C.ar    1  UNL1       -0.0002
     12 C         141.2677  129.7730  154.8225 C.ar    1  UNL1        0.0013
     13 C         140.9348  131.2241  154.6402 C.ar    1  UNL1        0.0144
     14 C         141.6853  132.2685  155.4123 C.ar    1  UNL1        0.0463
     15 N         141.1984  133.6486  155.0835 N.am    1  UNL1       -0.2826
     16 C         141.6744  134.9628  155.6278 C.2     1  UNL1        0.2486
     17 O         140.9778  136.1792  155.0940 O.2     1  UNL1       -0.2727
     18 H         140.4700  133.6985  154.4231 H       1  UNL1        0.1549
     19 C         141.7023  142.3126  159.5289 C.ar    1  UNL1        0.1547
     20 C         142.0451  141.2212  158.5587 C.ar    1  UNL1        0.0400
     21 C         142.5669  139.9077  159.0611 C.ar    1  UNL1        0.0241
     22 C         142.7458  139.6856  160.5337 C.ar    1  UNL1        0.0033
     23 C         142.4030  140.7770  161.5039 C.ar    1  UNL1        0.0207
     24 C         141.8813  142.0905  161.0015 C.ar    1  UNL1        0.0994
     25 N         141.5384  143.1819  161.9717 N.ar    1  UNL1       -0.2839
     26 C         142.3557  144.4104  162.2418 C.ar    1  UNL1        0.1826
     27 N         141.6405  145.2241  163.2792 N.ar    1  UNL1       -0.2280
     28 C         140.3812  144.4987  163.6503 C.ar    1  UNL1        0.0786
     29 C         139.3636  144.9552  164.6533 C.3     1  UNL1        0.0538
     30 C         140.3181  143.2365  162.8422 C.ar    1  UNL1        0.0963
     31 C         139.7031  143.8397  158.8801 C.3     1  UNL1        0.2525
     32 O         141.1806  143.6261  159.0264 O.3     1  UNL1       -0.4700
@<TRIPOS>BOND
     1    31    32    1
     2    32    19    1
     3    19    20   ar
     4    20    21   ar
     5    21     1    1
     6     1     2   ar
     7     2     3   ar
     8     3     6    1
     9     6     7    1
    10     7     8    1
    11     8     9    1
    12     9    10   ar
    13    10    11   ar
    14    11    12   ar
    15    12    13   ar
    16    13    14   ar
    17    14    15    1
    18    15    16   am
    19    16    17    2
    20     3     4   ar
    21     4     5   ar
    22    21    22   ar
    23    22    23   ar
    24    23    24   ar
    25    24    25    1
    26    25    26   ar
    27    26    27   ar
    28    27    28   ar
    29    28    29    1
    30    28    30   ar
    31    24    19   ar
    32    30    25   ar
    33     5     1   ar
    34    16     6    1
    35    14     9   ar
    36    15    18    1
@<TRIPOS>MOLECULE
*****
 32 36 0 0 0
SMALL
GASTEIGER

@<TRIPOS>ATOM
      1 C         140.7856  144.6208  162.3258 C.ar    1  UNL1        0.1233
      2 C         141.3882  144.3884  160.9720 C.ar    1  UNL1        0.1180
      3 N         140.7052  145.3015  159.9974 N.ar    1  UNL1       -0.2233
      4 N         139.6804  146.0983  160.7490 N.ar    1  UNL1       -0.0634
      5 N         139.7300  145.6777  162.1880 N.ar    1  UNL1       -0.1287
      6 C         140.9959  145.4004  158.5292 C.3     1  UNL1        0.1831
      7 C         140.0021  146.1800  157.7201 C.3     1  UNL1        0.0385
      8 C         140.0091  146.4583  156.2462 C.3     1  UNL1        0.0301
      9 C         141.0113  146.0259  155.2173 C.ar    1  UNL1       -0.0086
     10 C         140.6416  146.5204  153.8503 C.ar    1  UNL1       -0.0030
     11 C         141.5148  146.1972  152.6743 C.ar    1  UNL1       -0.0002
     12 C         142.7578  145.3796  152.8654 C.ar    1  UNL1        0.0013
     13 C         143.1275  144.8851  154.2324 C.ar    1  UNL1        0.0144
     14 C         142.2543  145.2083  155.4083 C.ar    1  UNL1        0.0463
     15 N         142.8019  144.6211  156.6754 N.am    1  UNL1       -0.2826
     16 C         142.2420  144.7066  158.0643 C.2     1  UNL1        0.2486
     17 O         143.0325  144.0057  159.1291 O.2     1  UNL1       -0.2727
     18 H         143.6397  144.1124  156.5832 H       1  UNL1        0.1549
     19 C         142.9536  142.7035  165.0411 C.ar    1  UNL1        0.1547
     20 C         142.5684  143.4047  163.7723 C.ar    1  UNL1        0.0400
     21 C         141.1708  143.9196  163.5946 C.ar    1  UNL1        0.0241
     22 C         140.1584  143.7333  164.6856 C.ar    1  UNL1        0.0033
     23 C         140.5437  143.0321  165.9544 C.ar    1  UNL1        0.0207
     24 C         141.9412  142.5172  166.1321 C.ar    1  UNL1        0.0994
     25 N         142.3264  141.8160  167.4010 N.ar    1  UNL1       -0.2839
     26 C         143.1285  142.4031  168.5244 C.ar    1  UNL1        0.1826
     27 N         143.2749  141.3545  169.5868 N.ar    1  UNL1       -0.2280
     28 C         142.5634  140.1192  169.1202 C.ar    1  UNL1        0.0786
     29 C         142.4568  138.8258  169.8723 C.3     1  UNL1        0.0538
     30 C         141.9772  140.4044  167.7692 C.ar    1  UNL1        0.0963
     31 C         145.2496  142.0313  164.0281 C.3     1  UNL1        0.2525
     32 O         144.3512  142.1887  165.2189 O.3     1  UNL1       -0.4700
@<TRIPOS>BOND
     1    31    32    1
     2    32    19    1
     3    19    20   ar
     4    20    21   ar
     5    21     1    1
     6     1     2   ar
     7     2     3   ar
     8     3     6    1
     9     6     7    1
    10     7     8    1
    11     8     9    1
    12     9    10   ar
    13    10    11   ar
    14    11    12   ar
    15    12    13   ar
    16    13    14   ar
    17    14    15    1
    18    15    16   am
    19    16    17    2
    20     3     4   ar
    21     4     5   ar
    22    21    22   ar
    23    22    23   ar
    24    23    24   ar
    25    24    25    1
    26    25    26   ar
    27    26    27   ar
    28    27    28   ar
    29    28    29    1
    30    28    30   ar
    31    24    19   ar
    32    30    25   ar
    33     5     1   ar
    34    16     6    1
    35    14     9   ar
    36    15    18    1
@<TRIPOS>MOLECULE
*****
 32 36 0 0 0
SMALL
GASTEIGER

@<TRIPOS>ATOM
      1 C         138.5701  140.5531  161.6023 C.ar    1  UNL1        0.1233
      2 C         139.4349  140.4391  162.8226 C.ar    1  UNL1        0.1180
      3 N         138.7001  141.0635  163.9716 N.ar    1  UNL1       -0.2233
      4 N         137.3811  141.5635  163.4613 N.ar    1  UNL1       -0.0634
      5 N         137.3008  141.2481  161.9971 N.ar    1  UNL1       -0.1287
      6 C         139.1970  141.1694  165.3829 C.3     1  UNL1        0.1831
      7 C         139.9227  142.4371  165.7240 C.3     1  UNL1        0.0385
      8 C         140.5331  142.8419  167.0330 C.3     1  UNL1        0.0301
      9 C         140.5686  142.0793  168.3242 C.ar    1  UNL1       -0.0086
     10 C         141.2820  142.8490  169.3959 C.ar    1  UNL1       -0.0030
     11 C         141.4292  142.2626  170.7686 C.ar    1  UNL1       -0.0002
     12 C         140.8630  140.9066  171.0697 C.ar    1  UNL1        0.0013
     13 C         140.1496  140.1369  169.9980 C.ar    1  UNL1        0.0144
     14 C         140.0024  140.7233  168.6252 C.ar    1  UNL1        0.0463
     15 N         139.2609  139.7951  167.7094 N.am    1  UNL1       -0.2826
     16 C         138.9024  139.9935  166.2665 C.2     1  UNL1        0.2486
     17 O         138.1499  138.8674  165.6219 O.2     1  UNL1       -0.2727
     18 H         138.9711  138.9429  168.1082 H       1  UNL1        0.1549
     19 C         138.5934  140.1671  157.6526 C.ar    1  UNL1        0.1547
     20 C         138.2492  140.6612  159.0264 C.ar    1  UNL1        0.0400
     21 C         138.9143  140.0590  160.2285 C.ar    1  UNL1        0.0241
     22 C         139.9234  138.9626  160.0568 C.ar    1  UNL1        0.0033
     23 C         140.2676  138.4685  158.6830 C.ar    1  UNL1        0.0207
     24 C         139.6026  139.0707  157.4809 C.ar    1  UNL1        0.0994
     25 N         139.9468  138.5765  156.1071 N.ar    1  UNL1       -0.2839
     26 C         141.1515  138.9699  155.3047 C.ar    1  UNL1        0.1826
     27 N         141.0959  138.2387  153.9962 N.ar    1  UNL1       -0.2280
     28 C         139.8568  137.3934  153.9898 C.ar    1  UNL1        0.0786
     29 C         139.4069  136.4968  152.8747 C.3     1  UNL1        0.0538
     30 C         139.1466  137.6022  155.2944 C.ar    1  UNL1        0.0963
     31 C         136.5226  141.2832  156.5498 C.3     1  UNL1        0.2525
     32 O         137.9284  140.7693  156.4505 O.3     1  UNL1       -0.4700
@<TRIPOS>BOND
     1    31    32    1
     2    32    19    1
     3    19    20   ar
     4    20    21   ar
     5    21     1    1
     6     1     2   ar
     7     2     3   ar
     8     3     6    1
     9     6     7    1
    10     7     8    1
    11     8     9    1
    12     9    10   ar
    13    10    11   ar
    14    11    12   ar
    15    12    13   ar
    16    13    14   ar
    17    14    15    1
    18    15    16   am
    19    16    17    2
    20     3     4   ar
    21     4     5   ar
    22    21    22   ar
    23    22    23   ar
    24    23    24   ar
    25    24    25    1
    26    25    26   ar
    27    26    27   ar
    28    27    28   ar
    29    28    29    1
    30    28    30   ar
    31    24    19   ar
    32    30    25   ar
    33     5     1   ar
    34    16     6    1
    35    14     9   ar
    36    15    18    1
@<TRIPOS>MOLECULE
*****
 32 36 0 0 0
SMALL
GASTEIGER

@<TRIPOS>ATOM
      1 C         142.9427  137.1883  157.5062 C.ar    1  UNL1        0.1233
      2 C         142.6782  137.5116  158.9468 C.ar    1  UNL1        0.1180
      3 N         143.0785  138.9378  159.1830 N.ar    1  UNL1       -0.2233
      4 N         143.5905  139.4959  157.8882 N.ar    1  UNL1       -0.0634
      5 N         143.5066  138.4147  156.8519 N.ar    1  UNL1       -0.1287
      6 C         142.9835  139.6762  160.4852 C.3     1  UNL1        0.1831
      7 C         144.1814  139.5711  161.3818 C.3     1  UNL1        0.0385
      8 C         144.3948  140.1859  162.7333 C.3     1  UNL1        0.0301
      9 C         143.4631  141.0577  163.5219 C.ar    1  UNL1       -0.0086
     10 C         144.0685  141.4610  164.8337 C.ar    1  UNL1       -0.0030
     11 C         143.2985  142.3366  165.7774 C.ar    1  UNL1       -0.0002
     12 C         141.9232  142.8088  165.4093 C.ar    1  UNL1        0.0013
     13 C         141.3178  142.4054  164.0975 C.ar    1  UNL1        0.0144
     14 C         142.0877  141.5299  163.1538 C.ar    1  UNL1        0.0463
     15 N         141.3045  141.2469  161.9062 N.am    1  UNL1       -0.2826
     16 C         141.7031  140.4220  160.7185 C.2     1  UNL1        0.2486
     17 O         140.6871  140.3308  159.6189 O.2     1  UNL1       -0.2727
     18 H         140.4106  141.6570  161.8609 H       1  UNL1        0.1549
     19 C         143.1284  133.3160  156.6577 C.ar    1  UNL1        0.1547
     20 C         143.3831  134.6341  157.3266 C.ar    1  UNL1        0.0400
     21 C         142.6881  135.8701  156.8373 C.ar    1  UNL1        0.0241
     22 C         141.7386  135.7879  155.6790 C.ar    1  UNL1        0.0033
     23 C         141.4840  134.4696  155.0101 C.ar    1  UNL1        0.0207
     24 C         142.1789  133.2337  155.4994 C.ar    1  UNL1        0.0994
     25 N         141.9243  131.9155  154.8304 N.ar    1  UNL1       -0.2839
     26 C         142.8669  131.1964  153.9114 C.ar    1  UNL1        0.1826
     27 N         142.2074  129.9215  153.4761 N.ar    1  UNL1       -0.2280
     28 C         140.8574  129.8524  154.1260 C.ar    1  UNL1        0.0786
     29 C         139.8578  128.7454  153.9668 C.3     1  UNL1        0.0538
     30 C         140.6823  131.0848  154.9630 C.ar    1  UNL1        0.0963
     31 C         145.1432  132.1906  157.8511 C.3     1  UNL1        0.2525
     32 O         143.8233  132.0800  157.1471 O.3     1  UNL1       -0.4700
@<TRIPOS>BOND
     1    31    32    1
     2    32    19    1
     3    19    20   ar
     4    20    21   ar
     5    21     1    1
     6     1     2   ar
     7     2     3   ar
     8     3     6    1
     9     6     7    1
    10     7     8    1
    11     8     9    1
    12     9    10   ar
    13    10    11   ar
    14    11    12   ar
    15    12    13   ar
    16    13    14   ar
    17    14    15    1
    18    15    16   am
    19    16    17    2
    20     3     4   ar
    21     4     5   ar
    22    21    22   ar
    23    22    23   ar
    24    23    24   ar
    25    24    25    1
    26    25    26   ar
    27    26    27   ar
    28    27    28   ar
    29    28    29    1
    30    28    30   ar
    31    24    19   ar
    32    30    25   ar
    33     5     1   ar
    34    16     6    1
    35    14     9   ar
    36    15    18    1
@<TRIPOS>MOLECULE
*****
 32 36 0 0 0
SMALL
GASTEIGER

@<TRIPOS>ATOM
      1 C         142.7958  138.8309  160.9630 C.ar    1  UNL1        0.1233
      2 C         142.2639  137.7368  160.0855 C.ar    1  UNL1        0.1180
      3 N         142.8354  137.9253  158.7115 N.ar    1  UNL1       -0.2233
      4 N         143.7205  139.1360  158.7398 N.ar    1  UNL1       -0.0634
      5 N         143.6960  139.6957  160.1313 N.ar    1  UNL1       -0.1287
      6 C         142.5687  137.0558  157.5187 C.3     1  UNL1        0.1831
      7 C         143.2729  135.7314  157.5082 C.3     1  UNL1        0.0385
      8 C         143.2153  134.6499  156.4704 C.3     1  UNL1        0.0301
      9 C         142.4393  134.6255  155.1870 C.ar    1  UNL1       -0.0086
     10 C         142.6634  133.3469  154.4353 C.ar    1  UNL1       -0.0030
     11 C         141.9773  133.1196  153.1210 C.ar    1  UNL1       -0.0002
     12 C         141.0672  134.1708  152.5583 C.ar    1  UNL1        0.0013
     13 C         140.8432  135.4494  153.3099 C.ar    1  UNL1        0.0144
     14 C         141.5292  135.6767  154.6242 C.ar    1  UNL1        0.0463
     15 N         141.1704  137.0119  155.2060 N.am    1  UNL1       -0.2826
     16 C         141.6329  137.6257  156.4942 C.2     1  UNL1        0.2486
     17 O         141.0877  138.9897  156.7979 O.2     1  UNL1       -0.2727
     18 H         140.5491  137.5576  154.6717 H       1  UNL1        0.1549
     19 C         142.4243  140.5482  164.5214 C.ar    1  UNL1        0.1547
     20 C         142.7377  140.3532  163.0676 C.ar    1  UNL1        0.0400
     21 C         142.4825  139.0260  162.4169 C.ar    1  UNL1        0.0241
     22 C         141.9139  137.8939  163.2200 C.ar    1  UNL1        0.0033
     23 C         141.6006  138.0889  164.6738 C.ar    1  UNL1        0.0207
     24 C         141.8558  139.4160  165.3246 C.ar    1  UNL1        0.0994
     25 N         141.5424  139.6111  166.7785 N.ar    1  UNL1       -0.2839
     26 C         142.5047  139.4477  167.9175 C.ar    1  UNL1        0.1826
     27 N         141.7687  139.7394  169.1915 N.ar    1  UNL1       -0.2280
     28 C         140.3516  140.0830  168.8400 C.ar    1  UNL1        0.0786
     29 C         139.2650  140.4428  169.8096 C.3     1  UNL1        0.0538
     30 C         140.2117  140.0037  167.3486 C.ar    1  UNL1        0.0963
     31 C         144.0534  142.4764  165.1363 C.3     1  UNL1        0.2525
     32 O         142.6796  141.8754  165.1722 O.3     1  UNL1       -0.4700
@<TRIPOS>BOND
     1    31    32    1
     2    32    19    1
     3    19    20   ar
     4    20    21   ar
     5    21     1    1
     6     1     2   ar
     7     2     3   ar
     8     3     6    1
     9     6     7    1
    10     7     8    1
    11     8     9    1
    12     9    10   ar
    13    10    11   ar
    14    11    12   ar
    15    12    13   ar
    16    13    14   ar
    17    14    15    1
    18    15    16   am
    19    16    17    2
    20     3     4   ar
    21     4     5   ar
    22    21    22   ar
    23    22    23   ar
    24    23    24   ar
    25    24    25    1
    26    25    26   ar
    27    26    27   ar
    28    27    28   ar
    29    28    29    1
    30    28    30   ar
    31    24    19   ar
    32    30    25   ar
    33     5     1   ar
    34    16     6    1
    35    14     9   ar
    36    15    18    1
