@<TRIPOS>MOLECULE
*****
 34 37 0 0 0
SMALL
GASTEIGER

@<TRIPOS>ATOM
      1 C         138.0573  140.3866  162.5462 C.3     1  UNL1        0.1166
      2 N         136.8256  141.1683  162.8949 N.3     1  UNL1       -0.3162
      3 C         139.3245  139.6022  162.7172 C.3     1  UNL1        0.0739
      4 C         140.0622  139.0971  161.5129 C.3     1  UNL1        0.2039
      5 N         139.5328  139.3763  160.1374 N.pl3   1  UNL1       -0.1931
      6 C         138.2657  140.1607  159.9663 C.3     1  UNL1        0.2039
      7 C         137.5280  140.6658  161.1708 C.3     1  UNL1        0.0739
      8 H         136.7517  141.2521  163.9088 H       1  UNL1        0.1192
      9 H         136.0030  140.6860  162.5328 H       1  UNL1        0.1192
     10 C         140.2705  138.8712  158.9330 C.2     1  UNL1        0.3205
     11 N         139.5978  137.9240  157.9841 N.2     1  UNL1        0.0097
     12 C         140.3355  137.4189  156.7798 C.2     1  UNL1        0.4717
     13 N         141.7461  137.8608  156.5242 N.2     1  UNL1        0.0158
     14 C         142.4188  138.8079  157.4731 C.2     1  UNL1        0.3714
     15 N         143.7906  139.4145  157.4817 N.2     1  UNL1       -0.0339
     16 C         143.9007  140.2946  158.6914 C.2     1  UNL1        0.2323
     17 C         142.5969  140.2319  159.4304 C.2     1  UNL1        0.0486
     18 C         141.6810  139.3131  158.6775 C.3     1  UNL1        0.2428
     19 N         138.5101  139.1113  164.7639 N.am    1  UNL1       -0.3012
     20 C         138.1589  140.3789  164.0428 C.2     1  UNL1        0.2352
     21 O         137.9095  141.6385  164.8180 O.2     1  UNL1       -0.2737
     22 H         138.6738  138.2846  164.2551 H       1  UNL1        0.1497
     23 C         138.6117  139.1035  166.2605 C.3     1  UNL1        0.0943
     24 C         137.5668  138.4054  167.0795 C.3     1  UNL1        0.0262
     25 C         142.0514  141.1741  168.2929 C.ar    1  UNL1        0.1724
     26 C         140.8098  140.8458  169.0681 C.ar    1  UNL1        0.0398
     27 C         139.6633  140.1556  168.3906 C.ar    1  UNL1        0.0006
     28 C         139.7583  139.7937  166.9380 C.ar    1  UNL1       -0.0013
     29 C         140.9998  140.1219  166.1629 C.ar    1  UNL1        0.0374
     30 C         142.1464  140.8122  166.8404 C.ar    1  UNL1        0.1721
     31 C         142.9553  142.6941  170.1963 C.3     1  UNL1        0.2526
     32 O         143.1980  141.8643  168.9705 O.3     1  UNL1       -0.4684
     33 O         143.3880  141.1404  166.0653 O.3     1  UNL1       -0.4684
     34 C         143.4240  140.9264  164.5811 C.3     1  UNL1        0.2526
@<TRIPOS>BOND
     1    31    32    1
     2    32    25    1
     3    25    26   ar
     4    26    27   ar
     5    27    28   ar
     6    28    23    1
     7    23    24    1
     8    23    19    1
     9    19    20   am
    10    20    21    2
    11    20     1    1
    12     1     2    1
    13     1     3    1
    14     3     4    1
    15     4     5    1
    16     5    10    1
    17    10    11    2
    18    11    12    1
    19    12    13    2
    20    13    14    1
    21    14    15    2
    22    15    16    1
    23    16    17    2
    24    17    18    1
    25     5     6    1
    26     6     7    1
    27    28    29   ar
    28    29    30   ar
    29    30    33    1
    30    33    34    1
    31    30    25   ar
    32     7     1    1
    33    18    10    1
    34    18    14    1
    35    19    22    1
    36     2     8    1
    37     2     9    1
@<TRIPOS>MOLECULE
*****
 34 37 0 0 0
SMALL
GASTEIGER

@<TRIPOS>ATOM
      1 C         142.9151  143.6911  164.2004 C.3     1  UNL1        0.1166
      2 N         144.0176  144.4597  163.5344 N.3     1  UNL1       -0.3162
      3 C         141.5666  143.0773  164.4342 C.3     1  UNL1        0.0739
      4 C         141.3093  142.2848  165.6815 C.3     1  UNL1        0.2039
      5 N         142.4006  142.1061  166.6950 N.pl3   1  UNL1       -0.1931
      6 C         143.7492  142.7199  166.4613 C.3     1  UNL1        0.2039
      7 C         144.0064  143.5124  165.2140 C.3     1  UNL1        0.0739
      8 H         143.6818  144.8371  162.6483 H       1  UNL1        0.1192
      9 H         144.8085  143.8391  163.3617 H       1  UNL1        0.1192
     10 C         142.1433  141.3136  167.9423 C.2     1  UNL1        0.3205
     11 N         142.7311  139.9419  168.0940 N.2     1  UNL1        0.0097
     12 C         142.4738  139.1494  169.3412 C.2     1  UNL1        0.4717
     13 N         141.6287  139.7285  170.4369 N.2     1  UNL1        0.0158
     14 C         141.0409  141.1002  170.2852 C.2     1  UNL1        0.3714
     15 N         140.1746  141.9264  171.1890 N.2     1  UNL1       -0.0339
     16 C         139.8965  143.2296  170.5003 C.2     1  UNL1        0.2323
     17 C         140.5909  143.2088  169.1709 C.2     1  UNL1        0.0486
     18 C         141.2982  141.8927  169.0379 C.3     1  UNL1        0.2428
     19 N         140.7216  144.3470  162.9724 N.am    1  UNL1       -0.3012
     20 C         142.2067  144.1367  162.9556 C.2     1  UNL1        0.2352
     21 O         142.9833  144.3720  161.6941 O.2     1  UNL1       -0.2737
     22 H         140.2119  144.1926  163.8004 H       1  UNL1        0.1497
     23 C         140.0131  144.7926  161.7276 C.3     1  UNL1        0.0943
     24 C         139.7723  146.2529  161.4837 C.3     1  UNL1        0.0262
     25 C         138.6100  141.7484  158.7253 C.ar    1  UNL1        0.1724
     26 C         139.3254  142.9832  158.2631 C.ar    1  UNL1        0.0398
     27 C         139.7931  143.9979  159.2638 C.ar    1  UNL1        0.0006
     28 C         139.5454  143.7779  160.7268 C.ar    1  UNL1       -0.0013
     29 C         138.8300  142.5431  161.1891 C.ar    1  UNL1        0.0374
     30 C         138.3623  141.5284  160.1882 C.ar    1  UNL1        0.1721
     31 C         137.0442  141.0795  156.7629 C.3     1  UNL1        0.2526
     32 O         138.1423  140.7337  157.7244 O.3     1  UNL1       -0.4684
     33 O         137.6469  140.2936  160.6504 O.3     1  UNL1       -0.4684
     34 C         137.8569  139.7830  162.0451 C.3     1  UNL1        0.2526
@<TRIPOS>BOND
     1    31    32    1
     2    32    25    1
     3    25    26   ar
     4    26    27   ar
     5    27    28   ar
     6    28    23    1
     7    23    24    1
     8    23    19    1
     9    19    20   am
    10    20    21    2
    11    20     1    1
    12     1     2    1
    13     1     3    1
    14     3     4    1
    15     4     5    1
    16     5    10    1
    17    10    11    2
    18    11    12    1
    19    12    13    2
    20    13    14    1
    21    14    15    2
    22    15    16    1
    23    16    17    2
    24    17    18    1
    25     5     6    1
    26     6     7    1
    27    28    29   ar
    28    29    30   ar
    29    30    33    1
    30    33    34    1
    31    30    25   ar
    32     7     1    1
    33    18    10    1
    34    18    14    1
    35    19    22    1
    36     2     8    1
    37     2     9    1
@<TRIPOS>MOLECULE
*****
 34 37 0 0 0
SMALL
GASTEIGER

@<TRIPOS>ATOM
      1 C         139.9166  138.6812  162.6396 C.3     1  UNL1        0.1166
      2 N         138.8666  137.6107  162.6072 N.3     1  UNL1       -0.3162
      3 C         140.9020  139.6733  163.1829 C.3     1  UNL1        0.0739
      4 C         141.7091  140.5199  162.2440 C.3     1  UNL1        0.2039
      5 N         141.5310  140.3745  160.7617 N.pl3   1  UNL1       -0.1931
      6 C         140.5457  139.3826  160.2183 C.3     1  UNL1        0.2039
      7 C         139.7385  138.5359  161.1574 C.3     1  UNL1        0.0739
      8 H         138.6258  137.3415  163.5611 H       1  UNL1        0.1192
      9 H         139.2247  136.7983  162.1048 H       1  UNL1        0.1192
     10 C         142.3382  141.2212  159.8227 C.2     1  UNL1        0.3205
     11 N         143.4914  140.6208  159.0746 N.2     1  UNL1        0.0097
     12 C         144.2986  141.4674  158.1357 C.2     1  UNL1        0.4717
     13 N         143.9526  142.9145  157.9448 N.2     1  UNL1        0.0158
     14 C         142.7994  143.5149  158.6929 C.2     1  UNL1        0.3714
     15 N         142.2257  144.9007  158.7088 N.2     1  UNL1       -0.0339
     16 C         141.0639  144.9105  159.6575 C.2     1  UNL1        0.2323
     17 C         140.9196  143.5308  160.2280 C.2     1  UNL1        0.0486
     18 C         141.9922  142.6682  159.6319 C.3     1  UNL1        0.2428
     19 N         139.0996  139.5190  164.9592 N.am    1  UNL1       -0.3012
     20 C         139.7301  138.4548  164.1106 C.2     1  UNL1        0.2352
     21 O         140.1740  137.1643  164.7331 O.2     1  UNL1       -0.2737
     22 H         138.8083  140.3660  164.5506 H       1  UNL1        0.1497
     23 C         138.9131  139.2926  166.4302 C.3     1  UNL1        0.0943
     24 C         137.7258  138.5212  166.9257 C.3     1  UNL1        0.0262
     25 C         141.9150  140.9276  169.3568 C.ar    1  UNL1        0.1724
     26 C         142.3772  140.3530  168.0506 C.ar    1  UNL1        0.0398
     27 C         141.3765  139.8080  167.0751 C.ar    1  UNL1        0.0006
     28 C         139.9137  139.8376  167.4058 C.ar    1  UNL1       -0.0013
     29 C         139.4515  140.4122  168.7120 C.ar    1  UNL1        0.0374
     30 C         140.4522  140.9572  169.6875 C.ar    1  UNL1        0.1721
     31 C         144.0381  142.3421  169.8485 C.3     1  UNL1        0.2526
     32 O         142.9157  141.4726  170.3324 O.3     1  UNL1       -0.4684
     33 O         139.9901  141.5319  170.9938 O.3     1  UNL1       -0.4684
     34 C         139.6013  142.9780  171.0813 C.3     1  UNL1        0.2526
@<TRIPOS>BOND
     1    31    32    1
     2    32    25    1
     3    25    26   ar
     4    26    27   ar
     5    27    28   ar
     6    28    23    1
     7    23    24    1
     8    23    19    1
     9    19    20   am
    10    20    21    2
    11    20     1    1
    12     1     2    1
    13     1     3    1
    14     3     4    1
    15     4     5    1
    16     5    10    1
    17    10    11    2
    18    11    12    1
    19    12    13    2
    20    13    14    1
    21    14    15    2
    22    15    16    1
    23    16    17    2
    24    17    18    1
    25     5     6    1
    26     6     7    1
    27    28    29   ar
    28    29    30   ar
    29    30    33    1
    30    33    34    1
    31    30    25   ar
    32     7     1    1
    33    18    10    1
    34    18    14    1
    35    19    22    1
    36     2     8    1
    37     2     9    1
@<TRIPOS>MOLECULE
*****
 34 37 0 0 0
SMALL
GASTEIGER

@<TRIPOS>ATOM
      1 C         143.7374  139.9111  164.1329 C.3     1  UNL1        0.1166
      2 N         144.8147  139.0001  163.6235 N.3     1  UNL1       -0.3162
      3 C         142.7175  141.0107  164.1601 C.3     1  UNL1        0.0739
      4 C         141.9065  141.2509  165.3987 C.3     1  UNL1        0.2039
      5 N         142.1152  140.3915  166.6103 N.pl3   1  UNL1       -0.1931
      6 C         143.1351  139.2919  166.5832 C.3     1  UNL1        0.2039
      7 C         143.9462  139.0517  165.3444 C.3     1  UNL1        0.0739
      8 H         145.0448  139.2500  162.6618 H       1  UNL1        0.1192
      9 H         144.4866  138.0348  163.6548 H       1  UNL1        0.1192
     10 C         141.3041  140.6318  167.8490 C.2     1  UNL1        0.3205
     11 N         139.9570  139.9895  167.9997 N.2     1  UNL1        0.0097
     12 C         139.1459  140.2298  169.2383 C.2     1  UNL1        0.4717
     13 N         139.6819  141.1123  170.3265 N.2     1  UNL1        0.0158
     14 C         141.0290  141.7545  170.1758 C.2     1  UNL1        0.3714
     15 N         141.8124  142.6660  171.0733 N.2     1  UNL1       -0.0339
     16 C         143.1077  142.9890  170.3893 C.2     1  UNL1        0.2323
     17 C         143.1249  142.2772  169.0691 C.2     1  UNL1        0.0486
     18 C         141.8402  141.5143  168.9371 C.3     1  UNL1        0.2428
     19 N         142.8109  140.2705  161.7325 N.am    1  UNL1       -0.3012
     20 C         143.9028  140.4541  162.7444 C.2     1  UNL1        0.2352
     21 O         145.1598  141.1807  162.3680 O.2     1  UNL1       -0.2737
     22 H         141.9858  139.7936  161.9796 H       1  UNL1        0.1497
     23 C         142.9761  140.8135  160.3440 C.3     1  UNL1        0.0943
     24 C         143.8218  140.0782  159.3468 C.3     1  UNL1        0.0262
     25 C         140.9349  144.6481  159.1700 C.ar    1  UNL1        0.1724
     26 C         142.1133  144.1548  158.3840 C.ar    1  UNL1        0.0398
     27 C         142.7937  142.8765  158.7753 C.ar    1  UNL1        0.0006
     28 C         142.2957  142.0917  159.9526 C.ar    1  UNL1       -0.0013
     29 C         141.1172  142.5851  160.7387 C.ar    1  UNL1        0.0374
     30 C         140.4368  143.8634  160.3473 C.ar    1  UNL1        0.1721
     31 C         140.0844  146.2722  157.3290 C.3     1  UNL1        0.2526
     32 O         140.2544  145.9264  158.7786 O.3     1  UNL1       -0.4684
     33 O         139.2583  144.3568  161.1333 O.3     1  UNL1       -0.4684
     34 C         139.4459  145.4104  162.1843 C.3     1  UNL1        0.2526
@<TRIPOS>BOND
     1    31    32    1
     2    32    25    1
     3    25    26   ar
     4    26    27   ar
     5    27    28   ar
     6    28    23    1
     7    23    24    1
     8    23    19    1
     9    19    20   am
    10    20    21    2
    11    20     1    1
    12     1     2    1
    13     1     3    1
    14     3     4    1
    15     4     5    1
    16     5    10    1
    17    10    11    2
    18    11    12    1
    19    12    13    2
    20    13    14    1
    21    14    15    2
    22    15    16    1
    23    16    17    2
    24    17    18    1
    25     5     6    1
    26     6     7    1
    27    28    29   ar
    28    29    30   ar
    29    30    33    1
    30    33    34    1
    31    30    25   ar
    32     7     1    1
    33    18    10    1
    34    18    14    1
    35    19    22    1
    36     2     8    1
    37     2     9    1
@<TRIPOS>MOLECULE
*****
 34 37 0 0 0
SMALL
GASTEIGER

@<TRIPOS>ATOM
      1 C         138.5635  140.9436  162.6624 C.3     1  UNL1        0.1166
      2 N         137.0845  141.0853  162.8677 N.3     1  UNL1       -0.3162
      3 C         140.0146  140.7220  162.9711 C.3     1  UNL1        0.0739
      4 C         141.0327  140.7798  161.8711 C.3     1  UNL1        0.2039
      5 N         140.5998  141.0593  160.4623 N.pl3   1  UNL1       -0.1931
      6 C         139.1487  141.2810  160.1536 C.3     1  UNL1        0.2039
      7 C         138.1306  141.2232  161.2537 C.3     1  UNL1        0.0739
      8 H         136.8638  140.9515  163.8545 H       1  UNL1        0.1192
      9 H         136.5953  140.3839  162.3118 H       1  UNL1        0.1192
     10 C         141.6179  141.1172  159.3623 C.2     1  UNL1        0.3205
     11 N         142.1286  142.4432  158.8819 N.2     1  UNL1        0.0097
     12 C         143.1466  142.5011  157.7820 C.2     1  UNL1        0.4717
     13 N         143.6542  141.2328  157.1622 N.2     1  UNL1        0.0158
     14 C         143.1436  139.9068  157.6426 C.2     1  UNL1        0.3714
     15 N         143.4565  138.5001  157.2261 N.2     1  UNL1       -0.0339
     16 C         142.6318  137.5729  158.0688 C.2     1  UNL1        0.2323
     17 C         141.8091  138.4065  159.0060 C.2     1  UNL1        0.0486
     18 C         142.1254  139.8489  158.7426 C.3     1  UNL1        0.2428
     19 N         138.9258  139.4029  164.7227 N.am    1  UNL1       -0.3012
     20 C         138.4828  140.7133  164.1424 C.2     1  UNL1        0.2352
     21 O         137.9592  141.7933  165.0421 O.2     1  UNL1       -0.2737
     22 H         139.2695  138.6941  164.1321 H       1  UNL1        0.1497
     23 C         138.8452  139.1725  166.2027 C.3     1  UNL1        0.0943
     24 C         137.6514  138.4796  166.7899 C.3     1  UNL1        0.0262
     25 C         142.1845  140.5599  168.8810 C.ar    1  UNL1        0.1724
     26 C         142.4954  139.9876  167.5298 C.ar    1  UNL1        0.0398
     27 C         141.3823  139.5251  166.6370 C.ar    1  UNL1        0.0006
     28 C         139.9583  139.6350  167.0955 C.ar    1  UNL1       -0.0013
     29 C         139.6474  140.2073  168.4467 C.ar    1  UNL1        0.0374
     30 C         140.7606  140.6698  169.3395 C.ar    1  UNL1        0.1721
     31 C         143.8138  142.4265  169.6630 C.3     1  UNL1        0.2526
     32 O         143.2977  141.0224  169.7738 O.3     1  UNL1       -0.4684
     33 O         140.4497  141.2422  170.6907 O.3     1  UNL1       -0.4684
     34 C         140.0291  142.6763  170.8190 C.3     1  UNL1        0.2526
@<TRIPOS>BOND
     1    31    32    1
     2    32    25    1
     3    25    26   ar
     4    26    27   ar
     5    27    28   ar
     6    28    23    1
     7    23    24    1
     8    23    19    1
     9    19    20   am
    10    20    21    2
    11    20     1    1
    12     1     2    1
    13     1     3    1
    14     3     4    1
    15     4     5    1
    16     5    10    1
    17    10    11    2
    18    11    12    1
    19    12    13    2
    20    13    14    1
    21    14    15    2
    22    15    16    1
    23    16    17    2
    24    17    18    1
    25     5     6    1
    26     6     7    1
    27    28    29   ar
    28    29    30   ar
    29    30    33    1
    30    33    34    1
    31    30    25   ar
    32     7     1    1
    33    18    10    1
    34    18    14    1
    35    19    22    1
    36     2     8    1
    37     2     9    1
@<TRIPOS>MOLECULE
*****
 34 37 0 0 0
SMALL
GASTEIGER

@<TRIPOS>ATOM
      1 C         141.6606  144.7601  162.4606 C.3     1  UNL1        0.1166
      2 N         141.6556  145.7763  163.5638 N.3     1  UNL1       -0.3162
      3 C         142.0253  143.5371  161.6724 C.3     1  UNL1        0.0739
      4 C         141.3525  143.2622  160.3603 C.3     1  UNL1        0.2039
      5 N         140.3149  144.2103  159.8363 N.pl3   1  UNL1       -0.1931
      6 C         139.9501  145.4333  160.6245 C.3     1  UNL1        0.2039
      7 C         140.6230  145.7082  161.9367 C.3     1  UNL1        0.0739
      8 H         142.3294  145.5044  164.2797 H       1  UNL1        0.1192
      9 H         140.7237  145.8266  163.9755 H       1  UNL1        0.1192
     10 C         139.6420  143.9354  158.5242 C.2     1  UNL1        0.3205
     11 N         138.6357  142.8286  158.4147 N.2     1  UNL1        0.0097
     12 C         137.9629  142.5536  157.1027 C.2     1  UNL1        0.4717
     13 N         138.2964  143.3856  155.8999 N.2     1  UNL1        0.0158
     14 C         139.3028  144.4925  156.0093 C.2     1  UNL1        0.3714
     15 N         139.8306  145.4721  155.0034 N.2     1  UNL1       -0.0339
     16 C         140.8296  146.3525  155.6940 C.2     1  UNL1        0.2323
     17 C         140.9193  145.9170  157.1266 C.2     1  UNL1        0.0486
     18 C         139.9756  144.7674  157.3214 C.3     1  UNL1        0.2428
     19 N         142.7735  142.6772  163.5436 N.am    1  UNL1       -0.3012
     20 C         142.6964  144.1649  163.3677 C.2     1  UNL1        0.2352
     21 O         143.6552  145.0572  164.0987 O.2     1  UNL1       -0.2737
     22 H         142.1442  142.0915  163.0637 H       1  UNL1        0.1497
     23 C         143.8093  142.0819  164.4506 C.3     1  UNL1        0.0943
     24 C         145.2414  142.0124  164.0098 C.3     1  UNL1        0.0262
     25 C         142.6206  140.5047  168.4939 C.ar    1  UNL1        0.1724
     26 C         142.7052  139.5736  167.3210 C.ar    1  UNL1        0.0398
     27 C         143.1014  140.0993  165.9732 C.ar    1  UNL1        0.0006
     28 C         143.4131  141.5562  165.7984 C.ar    1  UNL1       -0.0013
     29 C         143.3285  142.4873  166.9714 C.ar    1  UNL1        0.0374
     30 C         142.9322  141.9615  168.3192 C.ar    1  UNL1        0.1721
     31 C         140.7739  139.8033  170.1815 C.3     1  UNL1        0.2526
     32 O         142.2243  139.9789  169.8418 O.3     1  UNL1       -0.4684
     33 O         142.8476  142.8926  169.4922 O.3     1  UNL1       -0.4684
     34 C         141.5124  143.3929  169.9578 C.3     1  UNL1        0.2526
@<TRIPOS>BOND
     1    31    32    1
     2    32    25    1
     3    25    26   ar
     4    26    27   ar
     5    27    28   ar
     6    28    23    1
     7    23    24    1
     8    23    19    1
     9    19    20   am
    10    20    21    2
    11    20     1    1
    12     1     2    1
    13     1     3    1
    14     3     4    1
    15     4     5    1
    16     5    10    1
    17    10    11    2
    18    11    12    1
    19    12    13    2
    20    13    14    1
    21    14    15    2
    22    15    16    1
    23    16    17    2
    24    17    18    1
    25     5     6    1
    26     6     7    1
    27    28    29   ar
    28    29    30   ar
    29    30    33    1
    30    33    34    1
    31    30    25   ar
    32     7     1    1
    33    18    10    1
    34    18    14    1
    35    19    22    1
    36     2     8    1
    37     2     9    1
@<TRIPOS>MOLECULE
*****
 34 37 0 0 0
SMALL
GASTEIGER

@<TRIPOS>ATOM
      1 C         143.1325  139.9393  164.1373 C.3     1  UNL1        0.1166
      2 N         143.5789  138.6792  163.4570 N.3     1  UNL1       -0.3162
      3 C         142.6600  141.3512  164.3199 C.3     1  UNL1        0.0739
      4 C         142.4176  141.8885  165.6992 C.3     1  UNL1        0.2039
      5 N         142.6477  141.0139  166.8960 N.pl3   1  UNL1       -0.1931
      6 C         143.1202  139.6020  166.7134 C.3     1  UNL1        0.2039
      7 C         143.3626  139.0647  165.3340 C.3     1  UNL1        0.0739
      8 H         143.5807  138.8205  162.4469 H       1  UNL1        0.1192
      9 H         142.9393  137.9205  163.6931 H       1  UNL1        0.1192
     10 C         142.4054  141.5512  168.2753 C.2     1  UNL1        0.3205
     11 N         143.4209  142.4470  168.9204 N.2     1  UNL1        0.0097
     12 C         143.1786  142.9843  170.2997 C.2     1  UNL1        0.4717
     13 N         141.9206  142.6259  171.0340 N.2     1  UNL1        0.0158
     14 C         140.9050  141.7301  170.3888 C.2     1  UNL1        0.3714
     15 N         139.5817  141.2075  170.8640 N.2     1  UNL1       -0.0339
     16 C         139.0063  140.3472  169.7784 C.2     1  UNL1        0.2323
     17 C         139.9739  140.3380  168.6322 C.2     1  UNL1        0.0486
     18 C         141.1474  141.1928  169.0095 C.3     1  UNL1        0.2428
     19 N         143.2948  141.8132  162.3451 N.am    1  UNL1       -0.3012
     20 C         143.0574  140.3763  162.7043 C.2     1  UNL1        0.2352
     21 O         142.7450  139.3765  161.6306 O.2     1  UNL1       -0.2737
     22 H         143.4999  142.4694  163.0498 H       1  UNL1        0.1497
     23 C         143.2198  142.2503  160.9121 C.3     1  UNL1        0.0943
     24 C         144.4796  142.5005  160.1374 C.3     1  UNL1        0.0262
     25 C         139.2152  142.8110  158.9377 C.ar    1  UNL1        0.1724
     26 C         140.4110  142.4339  158.1144 C.ar    1  UNL1        0.0398
     27 C         141.7459  142.2470  158.7726 C.ar    1  UNL1        0.0006
     28 C         141.8849  142.4372  160.2540 C.ar    1  UNL1       -0.0013
     29 C         140.6890  142.8143  161.0773 C.ar    1  UNL1        0.0374
     30 C         139.3541  143.0012  160.4190 C.ar    1  UNL1        0.1721
     31 C         137.5049  142.1597  157.0935 C.3     1  UNL1        0.2526
     32 O         137.8803  142.9979  158.2795 O.3     1  UNL1       -0.4684
     33 O         138.1583  143.3782  161.2423 O.3     1  UNL1       -0.4684
     34 C         137.8000  142.5740  162.4567 C.3     1  UNL1        0.2526
@<TRIPOS>BOND
     1    31    32    1
     2    32    25    1
     3    25    26   ar
     4    26    27   ar
     5    27    28   ar
     6    28    23    1
     7    23    24    1
     8    23    19    1
     9    19    20   am
    10    20    21    2
    11    20     1    1
    12     1     2    1
    13     1     3    1
    14     3     4    1
    15     4     5    1
    16     5    10    1
    17    10    11    2
    18    11    12    1
    19    12    13    2
    20    13    14    1
    21    14    15    2
    22    15    16    1
    23    16    17    2
    24    17    18    1
    25     5     6    1
    26     6     7    1
    27    28    29   ar
    28    29    30   ar
    29    30    33    1
    30    33    34    1
    31    30    25   ar
    32     7     1    1
    33    18    10    1
    34    18    14    1
    35    19    22    1
    36     2     8    1
    37     2     9    1
@<TRIPOS>MOLECULE
*****
 34 37 0 0 0
SMALL
GASTEIGER

@<TRIPOS>ATOM
      1 C         139.9422  144.5147  162.0997 C.3     1  UNL1        0.1166
      2 N         139.3451  145.7900  161.5831 N.3     1  UNL1       -0.3162
      3 C         140.6699  143.2031  162.1133 C.3     1  UNL1        0.0739
      4 C         140.8141  142.4387  163.3958 C.3     1  UNL1        0.2039
      5 N         140.2305  142.9859  164.6648 N.pl3   1  UNL1       -0.1931
      6 C         139.5028  144.2974  164.6512 C.3     1  UNL1        0.2039
      7 C         139.3586  145.0618  163.3686 C.3     1  UNL1        0.0739
      8 H         139.5221  145.8671  160.5815 H       1  UNL1        0.1192
      9 H         139.7680  146.5832  162.0652 H       1  UNL1        0.1192
     10 C         140.3747  142.2214  165.9473 C.2     1  UNL1        0.3205
     11 N         141.3697  142.6664  166.9778 N.2     1  UNL1        0.0097
     12 C         141.5139  141.9020  168.2602 C.2     1  UNL1        0.4717
     13 N         140.6631  140.6925  168.5123 N.2     1  UNL1        0.0158
     14 C         139.6681  140.2476  167.4818 C.2     1  UNL1        0.3714
     15 N         138.6992  139.1030  167.4507 N.2     1  UNL1       -0.0339
     16 C         137.9562  139.1600  166.1489 C.2     1  UNL1        0.2323
     17 C         138.4658  140.3399  165.3755 C.2     1  UNL1        0.0486
     18 C         139.5239  141.0120  166.1993 C.3     1  UNL1        0.2428
     19 N         141.6637  144.8871  160.1899 N.am    1  UNL1       -0.3012
     20 C         140.3184  144.4105  160.6514 C.2     1  UNL1        0.2352
     21 O         139.3494  143.8296  159.6647 O.2     1  UNL1       -0.2737
     22 H         142.2997  145.2683  160.8375 H       1  UNL1        0.1497
     23 C         142.0400  144.7828  158.7416 C.3     1  UNL1        0.0943
     24 C         141.7853  145.9352  157.8157 C.3     1  UNL1        0.0262
     25 C         143.9330  141.0132  157.1745 C.ar    1  UNL1        0.1724
     26 C         143.5412  142.1064  156.2250 C.ar    1  UNL1        0.0398
     27 C         142.9102  143.3629  156.7474 C.ar    1  UNL1        0.0006
     28 C         142.6710  143.5263  158.2192 C.ar    1  UNL1       -0.0013
     29 C         143.0629  142.4331  159.1686 C.ar    1  UNL1        0.0374
     30 C         143.6939  141.1765  158.6462 C.ar    1  UNL1        0.1721
     31 C         145.4952  139.8172  155.4777 C.3     1  UNL1        0.2526
     32 O         144.5641  139.7566  156.6520 O.3     1  UNL1       -0.4684
     33 O         144.0857  140.0833  159.5956 O.3     1  UNL1       -0.4684
     34 C         143.1488  138.9400  159.8507 C.3     1  UNL1        0.2526
@<TRIPOS>BOND
     1    31    32    1
     2    32    25    1
     3    25    26   ar
     4    26    27   ar
     5    27    28   ar
     6    28    23    1
     7    23    24    1
     8    23    19    1
     9    19    20   am
    10    20    21    2
    11    20     1    1
    12     1     2    1
    13     1     3    1
    14     3     4    1
    15     4     5    1
    16     5    10    1
    17    10    11    2
    18    11    12    1
    19    12    13    2
    20    13    14    1
    21    14    15    2
    22    15    16    1
    23    16    17    2
    24    17    18    1
    25     5     6    1
    26     6     7    1
    27    28    29   ar
    28    29    30   ar
    29    30    33    1
    30    33    34    1
    31    30    25   ar
    32     7     1    1
    33    18    10    1
    34    18    14    1
    35    19    22    1
    36     2     8    1
    37     2     9    1
@<TRIPOS>MOLECULE
*****
 34 37 0 0 0
SMALL
GASTEIGER

@<TRIPOS>ATOM
      1 C         139.5699  138.9899  162.1493 C.3     1  UNL1        0.1166
      2 N         138.1010  139.1283  162.4191 N.3     1  UNL1       -0.3162
      3 C         141.0267  138.7192  162.3831 C.3     1  UNL1        0.0739
      4 C         142.0086  138.8774  161.2604 C.3     1  UNL1        0.2039
      5 N         141.5338  139.3063  159.9036 N.pl3   1  UNL1       -0.1931
      6 C         140.0771  139.5770  159.6697 C.3     1  UNL1        0.2039
      7 C         139.0952  139.4187  160.7926 C.3     1  UNL1        0.0739
      8 H         137.9110  138.8962  163.3940 H       1  UNL1        0.1192
      9 H         137.5824  138.4942  161.8113 H       1  UNL1        0.1192
     10 C         142.5158  139.4644  158.7808 C.2     1  UNL1        0.3205
     11 N         143.5390  140.5602  158.8280 N.2     1  UNL1        0.0097
     12 C         144.5209  140.7184  157.7053 C.2     1  UNL1        0.4717
     13 N         144.4798  139.7808  156.5351 N.2     1  UNL1        0.0158
     14 C         143.4566  138.6850  156.4879 C.2     1  UNL1        0.3714
     15 N         143.1756  137.6173  155.4724 N.2     1  UNL1       -0.0339
     16 C         142.0199  136.7993  155.9677 C.2     1  UNL1        0.2323
     17 C         141.5867  137.3614  157.2892 C.2     1  UNL1        0.0486
     18 C         142.4746  138.5268  157.6107 C.3     1  UNL1        0.2428
     19 N         139.0017  139.5752  164.6159 N.am    1  UNL1       -0.3012
     20 C         139.5346  138.6091  163.5997 C.2     1  UNL1        0.2352
     21 O         140.0320  137.2623  164.0339 O.2     1  UNL1       -0.2737
     22 H         138.6752  140.4592  164.3309 H       1  UNL1        0.1497
     23 C         138.9663  139.1945  166.0664 C.3     1  UNL1        0.0943
     24 C         137.8151  138.3978  166.6048 C.3     1  UNL1        0.0262
     25 C         142.3139  140.4424  168.8024 C.ar    1  UNL1        0.1724
     26 C         142.6236  139.8774  167.4478 C.ar    1  UNL1        0.0398
     27 C         141.5077  139.4614  166.5358 C.ar    1  UNL1        0.0006
     28 C         140.0822  139.6105  166.9784 C.ar    1  UNL1       -0.0013
     29 C         139.7726  140.1755  168.3330 C.ar    1  UNL1        0.0374
     30 C         140.8886  140.5915  169.2450 C.ar    1  UNL1        0.1721
     31 C         143.8514  142.2966  169.7762 C.3     1  UNL1        0.2526
     32 O         143.4299  140.8584  169.7144 O.3     1  UNL1       -0.4684
     33 O         140.5789  141.1565  170.5996 O.3     1  UNL1       -0.4684
     34 C         140.1531  142.5884  170.7354 C.3     1  UNL1        0.2526
@<TRIPOS>BOND
     1    31    32    1
     2    32    25    1
     3    25    26   ar
     4    26    27   ar
     5    27    28   ar
     6    28    23    1
     7    23    24    1
     8    23    19    1
     9    19    20   am
    10    20    21    2
    11    20     1    1
    12     1     2    1
    13     1     3    1
    14     3     4    1
    15     4     5    1
    16     5    10    1
    17    10    11    2
    18    11    12    1
    19    12    13    2
    20    13    14    1
    21    14    15    2
    22    15    16    1
    23    16    17    2
    24    17    18    1
    25     5     6    1
    26     6     7    1
    27    28    29   ar
    28    29    30   ar
    29    30    33    1
    30    33    34    1
    31    30    25   ar
    32     7     1    1
    33    18    10    1
    34    18    14    1
    35    19    22    1
    36     2     8    1
    37     2     9    1
