@<TRIPOS>MOLECULE
*****
 40 46 0 0 0
SMALL
GASTEIGER

@<TRIPOS>ATOM
      1 C         144.0487  139.6675  164.4036 C.3     1  UNL1        0.0955
      2 C         144.4629  141.0884  164.6480 C.3     1  UNL1        0.0287
      3 C         144.9056  141.9483  163.5015 C.3     1  UNL1        0.0193
      4 C         144.9342  141.3875  162.1106 C.3     1  UNL1        0.0700
      5 C         144.5200  139.9667  161.8662 C.3     1  UNL1        0.0193
      6 C         144.0773  139.1066  163.0127 C.3     1  UNL1        0.0287
      7 C         144.6841  140.8778  162.7071 C.3     1  UNL1        0.1562
      8 O         144.2838  140.1002  163.7437 O.3     1  UNL1       -0.3571
      9 N         145.3769  142.2475  160.9641 N.3     1  UNL1       -0.2926
     10 H         145.9506  141.6596  160.3594 H       1  UNL1        0.1236
     11 C         144.3570  142.9081  160.0847 C.3     1  UNL1        0.1152
     12 C         142.9737  143.1667  160.6040 C.ar    1  UNL1        0.0780
     13 C         141.9147  142.1123  160.4746 C.ar    1  UNL1        0.0544
     14 C         140.5314  142.3709  160.9938 C.ar    1  UNL1        0.1583
     15 C         140.2071  143.6839  161.6425 C.ar    1  UNL1        0.1586
     16 C         141.2661  144.7383  161.7719 C.ar    1  UNL1        0.1199
     17 N         142.6494  144.4797  161.2526 N.ar    1  UNL1       -0.2452
     18 S         138.8238  143.9426  162.1618 S.O2    1  UNL1        0.0168
     19 O         137.6690  144.6530  162.8033 O.2     1  UNL1       -0.1684
     20 O         139.4818  145.2437  162.5140 O.2     1  UNL1       -0.1684
     21 C         137.7648  142.8880  162.0323 C.3     1  UNL1        0.2032
     22 C         138.0892  141.5751  161.3836 C.3     1  UNL1        0.2312
     23 O         139.4725  141.3165  160.8644 O.3     1  UNL1       -0.4722
     24 C         143.6060  138.8075  165.5501 C.3     1  UNL1        0.0604
     25 O         143.4792  140.6551  170.3305 O.2     1  UNL1       -0.2670
     26 C         142.1134  140.3855  169.7721 C.ar    1  UNL1        0.2611
     27 C         140.8955  140.6603  170.6035 C.ar    1  UNL1        0.0623
     28 C         139.5297  140.3906  170.0451 C.ar    1  UNL1        0.0254
     29 C         139.3817  139.8463  168.6553 C.ar    1  UNL1        0.0972
     30 N         138.1599  139.4866  167.8501 N.ar    1  UNL1       -0.2400
     31 C         138.1687  138.9449  166.4514 C.ar    1  UNL1        0.1282
     32 C         139.4712  138.7208  165.7421 C.ar    1  UNL1        0.1588
     33 F         139.4800  138.1791  164.3434 F       1  UNL1       -0.2027
     34 C         140.7650  139.0384  166.4316 C.ar    1  UNL1        0.0500
     35 C         140.5996  139.5715  167.8238 C.ar    1  UNL1        0.0806
     36 N         141.9654  139.8411  168.3823 N.ar    1  UNL1       -0.2915
     37 C         142.9749  139.4746  167.3351 C.3     1  UNL1        0.1402
     38 C         142.2330  138.9785  166.1295 C.3     1  UNL1        0.1335
     39 O         141.7782  138.4467  164.8028 O.3     1  UNL1       -0.3806
     40 H         142.5509  138.2612  164.2466 H       1  UNL1        0.2108
@<TRIPOS>BOND
     1    25    26    2
     2    26    27   ar
     3    27    28   ar
     4    28    29   ar
     5    29    30   ar
     6    30    31   ar
     7    31    32   ar
     8    32    33    1
     9    32    34   ar
    10    34    35   ar
    11    35    36   ar
    12    36    37    1
    13    37    38    1
    14    38    39    1
    15    38    24    1
    16    24     1    1
    17     1     2    1
    18     2     3    1
    19     3     4    1
    20     4     9    1
    21     9    11    1
    22    11    12    1
    23    12    13   ar
    24    13    14   ar
    25    14    15   ar
    26    15    16   ar
    27    16    17   ar
    28    15    18    1
    29    18    19    2
    30    18    20    2
    31    18    21    1
    32    21    22    1
    33    22    23    1
    34     4     5    1
    35     5     6    1
    36     4     7    1
    37     7     8    1
    38    36    26   ar
    39     6     1    1
    40    35    29   ar
    41     8     1    1
    42    38    34    1
    43    17    12   ar
    44    23    14    1
    45    39    40    1
    46     9    10    1
@<TRIPOS>MOLECULE
*****
 40 46 0 0 0
SMALL
GASTEIGER

@<TRIPOS>ATOM
      1 C         138.4396  141.6937  164.3690 C.3     1  UNL1        0.0955
      2 C         138.0342  141.7270  162.9251 C.3     1  UNL1        0.0287
      3 C         137.9885  143.0331  162.1889 C.3     1  UNL1        0.0193
      4 C         138.3481  144.3059  162.8965 C.3     1  UNL1        0.0700
      5 C         138.7535  144.2726  164.3402 C.3     1  UNL1        0.0193
      6 C         138.7992  142.9665  165.0766 C.3     1  UNL1        0.0287
      7 C         138.3881  143.6143  163.3417 C.3     1  UNL1        0.1562
      8 O         138.4294  142.4334  164.0074 O.3     1  UNL1       -0.3571
      9 N         138.3024  145.6120  162.1602 N.3     1  UNL1       -0.2926
     10 H         137.8696  146.2891  162.7884 H       1  UNL1        0.1236
     11 C         139.5715  146.2354  161.6595 C.3     1  UNL1        0.1152
     12 C         140.5067  145.4424  160.7955 C.ar    1  UNL1        0.0780
     13 C         141.6267  144.6641  161.4198 C.ar    1  UNL1        0.0544
     14 C         142.5618  143.8711  160.5557 C.ar    1  UNL1        0.1583
     15 C         142.3768  143.8563  159.0672 C.ar    1  UNL1        0.1586
     16 C         141.2568  144.6346  158.4428 C.ar    1  UNL1        0.1199
     17 N         140.3217  145.4277  159.3070 N.ar    1  UNL1       -0.2452
     18 S         143.3119  143.0633  158.2030 S.O2    1  UNL1        0.0168
     19 O         143.9330  142.4689  156.9739 O.2     1  UNL1       -0.1684
     20 O         142.4076  143.6352  157.1518 O.2     1  UNL1       -0.1684
     21 C         144.4320  142.2850  158.8275 C.3     1  UNL1        0.2032
     22 C         144.6168  142.2998  160.3159 C.3     1  UNL1        0.2312
     23 O         143.6817  143.0928  161.1801 O.3     1  UNL1       -0.4722
     24 C         138.4853  140.3876  165.1052 C.3     1  UNL1        0.0604
     25 O         138.7803  140.8328  170.2040 O.2     1  UNL1       -0.2670
     26 C         140.0186  140.2434  169.5965 C.ar    1  UNL1        0.2611
     27 C         141.1723  139.8553  170.4730 C.ar    1  UNL1        0.0623
     28 C         142.4107  139.2658  169.8656 C.ar    1  UNL1        0.0254
     29 C         142.4953  139.0644  168.3816 C.ar    1  UNL1        0.0972
     30 N         143.5917  138.5055  167.5122 N.ar    1  UNL1       -0.2400
     31 C         143.5316  138.3642  166.0201 C.ar    1  UNL1        0.1282
     32 C         142.3043  138.7979  165.2746 C.ar    1  UNL1        0.1588
     33 F         142.2441  138.6566  163.7825 F       1  UNL1       -0.2027
     34 C         141.1372  139.3728  166.0212 C.ar    1  UNL1        0.0500
     35 C         141.3416  139.4525  167.5051 C.ar    1  UNL1        0.0806
     36 N         140.1033  140.0420  168.1125 N.ar    1  UNL1       -0.2915
     37 C         139.1336  140.3266  167.0041 C.3     1  UNL1        0.1402
     38 C         139.7726  139.9131  165.7115 C.3     1  UNL1        0.1335
     39 O         140.1426  139.5987  164.2923 O.3     1  UNL1       -0.3806
     40 H         139.4094  139.8420  163.7056 H       1  UNL1        0.2108
@<TRIPOS>BOND
     1    25    26    2
     2    26    27   ar
     3    27    28   ar
     4    28    29   ar
     5    29    30   ar
     6    30    31   ar
     7    31    32   ar
     8    32    33    1
     9    32    34   ar
    10    34    35   ar
    11    35    36   ar
    12    36    37    1
    13    37    38    1
    14    38    39    1
    15    38    24    1
    16    24     1    1
    17     1     2    1
    18     2     3    1
    19     3     4    1
    20     4     9    1
    21     9    11    1
    22    11    12    1
    23    12    13   ar
    24    13    14   ar
    25    14    15   ar
    26    15    16   ar
    27    16    17   ar
    28    15    18    1
    29    18    19    2
    30    18    20    2
    31    18    21    1
    32    21    22    1
    33    22    23    1
    34     4     5    1
    35     5     6    1
    36     4     7    1
    37     7     8    1
    38    36    26   ar
    39     6     1    1
    40    35    29   ar
    41     8     1    1
    42    38    34    1
    43    17    12   ar
    44    23    14    1
    45    39    40    1
    46     9    10    1
@<TRIPOS>MOLECULE
*****
 40 46 0 0 0
SMALL
GASTEIGER

@<TRIPOS>ATOM
      1 C         138.4320  139.2825  164.7494 C.3     1  UNL1        0.0955
      2 C         137.8763  140.6733  164.6656 C.3     1  UNL1        0.0287
      3 C         137.5424  141.2683  163.3297 C.3     1  UNL1        0.0193
      4 C         137.7642  140.4725  162.0777 C.3     1  UNL1        0.0700
      5 C         138.3199  139.0818  162.1615 C.3     1  UNL1        0.0193
      6 C         138.6539  138.4867  163.4973 C.3     1  UNL1        0.0287
      7 C         137.9623  140.1040  162.7869 C.3     1  UNL1        0.1562
      8 O         138.2642  139.5660  163.9948 O.3     1  UNL1       -0.3571
      9 N         137.4303  141.0675  160.7418 N.3     1  UNL1       -0.2926
     10 H         136.6608  141.7196  160.8939 H       1  UNL1        0.1236
     11 C         138.4796  141.8090  159.9678 C.3     1  UNL1        0.1152
     12 C         139.6377  142.4366  160.6854 C.ar    1  UNL1        0.0780
     13 C         141.0017  141.8196  160.5916 C.ar    1  UNL1        0.0544
     14 C         142.1597  142.4473  161.3093 C.ar    1  UNL1        0.1583
     15 C         141.9538  143.6919  162.1208 C.ar    1  UNL1        0.1586
     16 C         140.5898  144.3089  162.2145 C.ar    1  UNL1        0.1199
     17 N         139.4317  143.6812  161.4969 N.ar    1  UNL1       -0.2452
     18 S         143.1118  144.3196  162.8384 S.O2    1  UNL1        0.0168
     19 O         143.8900  145.2769  163.6915 O.2     1  UNL1       -0.1684
     20 O         142.0180  145.2690  163.2285 O.2     1  UNL1       -0.1684
     21 C         144.4758  143.7025  162.7446 C.3     1  UNL1        0.2032
     22 C         144.6817  142.4579  161.9332 C.3     1  UNL1        0.2312
     23 O         143.5237  141.8302  161.2155 O.3     1  UNL1       -0.4722
     24 C         138.7659  138.6875  166.0852 C.3     1  UNL1        0.0604
     25 O         143.1536  141.0062  164.7991 O.2     1  UNL1       -0.2670
     26 C         142.7151  141.3208  166.1987 C.ar    1  UNL1        0.2611
     27 C         143.5424  142.2311  167.0571 C.ar    1  UNL1        0.0623
     28 C         143.1040  142.5456  168.4567 C.ar    1  UNL1        0.0254
     29 C         141.8382  141.9499  168.9979 C.ar    1  UNL1        0.0972
     30 N         141.1660  142.0865  170.3394 N.ar    1  UNL1       -0.2400
     31 C         139.8837  141.4200  170.7414 C.ar    1  UNL1        0.1282
     32 C         139.1638  140.5317  169.7705 C.ar    1  UNL1        0.1588
     33 F         137.8815  139.8652  170.1725 F       1  UNL1       -0.2027
     34 C         139.7262  140.3097  168.3977 C.ar    1  UNL1        0.0500
     35 C         141.0109  141.0395  168.1395 C.ar    1  UNL1        0.0806
     36 N         141.4494  140.7250  166.7399 N.ar    1  UNL1       -0.2915
     37 C         140.4356  139.8008  166.1332 C.3     1  UNL1        0.1402
     38 C         139.3706  139.5441  167.1578 C.3     1  UNL1        0.1335
     39 O         138.1791  139.1084  167.9582 O.3     1  UNL1       -0.3806
     40 H         137.6280  138.5172  167.4219 H       1  UNL1        0.2108
@<TRIPOS>BOND
     1    25    26    2
     2    26    27   ar
     3    27    28   ar
     4    28    29   ar
     5    29    30   ar
     6    30    31   ar
     7    31    32   ar
     8    32    33    1
     9    32    34   ar
    10    34    35   ar
    11    35    36   ar
    12    36    37    1
    13    37    38    1
    14    38    39    1
    15    38    24    1
    16    24     1    1
    17     1     2    1
    18     2     3    1
    19     3     4    1
    20     4     9    1
    21     9    11    1
    22    11    12    1
    23    12    13   ar
    24    13    14   ar
    25    14    15   ar
    26    15    16   ar
    27    16    17   ar
    28    15    18    1
    29    18    19    2
    30    18    20    2
    31    18    21    1
    32    21    22    1
    33    22    23    1
    34     4     5    1
    35     5     6    1
    36     4     7    1
    37     7     8    1
    38    36    26   ar
    39     6     1    1
    40    35    29   ar
    41     8     1    1
    42    38    34    1
    43    17    12   ar
    44    23    14    1
    45    39    40    1
    46     9    10    1
@<TRIPOS>MOLECULE
*****
 40 46 0 0 0
SMALL
GASTEIGER

@<TRIPOS>ATOM
      1 C         142.9880  143.2298  164.2894 C.3     1  UNL1        0.0955
      2 C         141.8995  144.2596  164.3615 C.3     1  UNL1        0.0287
      3 C         141.4904  145.0061  163.1265 C.3     1  UNL1        0.0193
      4 C         142.1697  144.7230  161.8194 C.3     1  UNL1        0.0700
      5 C         143.2580  143.6934  161.7474 C.3     1  UNL1        0.0193
      6 C         143.6672  142.9467  162.9824 C.3     1  UNL1        0.0287
      7 C         142.4282  144.2884  162.4694 C.3     1  UNL1        0.1562
      8 O         142.7981  143.6134  163.5860 O.3     1  UNL1       -0.3571
      9 N         141.7605  145.4696  160.5844 N.3     1  UNL1       -0.2926
     10 H         142.5773  145.4994  159.9742 H       1  UNL1        0.1236
     11 C         140.6161  144.9722  159.7521 C.3     1  UNL1        0.1152
     12 C         140.0030  143.6345  160.0428 C.ar    1  UNL1        0.0780
     13 C         140.6204  142.3883  159.4808 C.ar    1  UNL1        0.0544
     14 C         140.0072  141.0506  159.7717 C.ar    1  UNL1        0.1583
     15 C         138.7766  140.9591  160.6245 C.ar    1  UNL1        0.1586
     16 C         138.1593  142.2052  161.1865 C.ar    1  UNL1        0.1199
     17 N         138.7725  143.5429  160.8957 N.ar    1  UNL1       -0.2452
     18 S         138.1635  139.6214  160.9154 S.O2    1  UNL1        0.0168
     19 O         137.2224  138.5924  161.4680 O.2     1  UNL1       -0.1684
     20 O         137.2193  140.5102  161.6693 O.2     1  UNL1       -0.1684
     21 C         138.7809  138.3752  160.3532 C.3     1  UNL1        0.2032
     22 C         140.0114  138.4668  159.5004 C.3     1  UNL1        0.2312
     23 O         140.6246  139.8045  159.2096 O.3     1  UNL1       -0.4722
     24 C         143.3971  142.4833  165.5245 C.3     1  UNL1        0.0604
     25 O         143.7469  143.3962  170.5570 O.2     1  UNL1       -0.2670
     26 C         142.6080  142.4851  170.2064 C.ar    1  UNL1        0.2611
     27 C         141.7178  141.9472  171.2872 C.ar    1  UNL1        0.0623
     28 C         140.5790  141.0361  170.9366 C.ar    1  UNL1        0.0254
     29 C         140.3303  140.6630  169.5053 C.ar    1  UNL1        0.0972
     30 N         139.2827  139.7849  168.8713 N.ar    1  UNL1       -0.2400
     31 C         139.1578  139.5012  167.4037 C.ar    1  UNL1        0.1282
     32 C         140.1268  140.1138  166.4364 C.ar    1  UNL1        0.1588
     33 F         140.0020  139.8301  164.9688 F       1  UNL1       -0.2027
     34 C         141.2208  141.0099  166.9367 C.ar    1  UNL1        0.0500
     35 C         141.2204  141.2009  168.4245 C.ar    1  UNL1        0.0806
     36 N         142.3593  142.1120  168.7751 N.ar    1  UNL1       -0.2915
     37 C         143.0635  142.4840  167.5039 C.3     1  UNL1        0.1402
     38 C         142.3598  141.8029  166.3677 C.3     1  UNL1        0.1335
     39 O         141.8730  141.2640  165.0553 O.3     1  UNL1       -0.3806
     40 H         142.4352  141.5994  164.3395 H       1  UNL1        0.2108
@<TRIPOS>BOND
     1    25    26    2
     2    26    27   ar
     3    27    28   ar
     4    28    29   ar
     5    29    30   ar
     6    30    31   ar
     7    31    32   ar
     8    32    33    1
     9    32    34   ar
    10    34    35   ar
    11    35    36   ar
    12    36    37    1
    13    37    38    1
    14    38    39    1
    15    38    24    1
    16    24     1    1
    17     1     2    1
    18     2     3    1
    19     3     4    1
    20     4     9    1
    21     9    11    1
    22    11    12    1
    23    12    13   ar
    24    13    14   ar
    25    14    15   ar
    26    15    16   ar
    27    16    17   ar
    28    15    18    1
    29    18    19    2
    30    18    20    2
    31    18    21    1
    32    21    22    1
    33    22    23    1
    34     4     5    1
    35     5     6    1
    36     4     7    1
    37     7     8    1
    38    36    26   ar
    39     6     1    1
    40    35    29   ar
    41     8     1    1
    42    38    34    1
    43    17    12   ar
    44    23    14    1
    45    39    40    1
    46     9    10    1
@<TRIPOS>MOLECULE
*****
 40 46 0 0 0
SMALL
GASTEIGER

@<TRIPOS>ATOM
      1 C         138.5514  139.0257  164.0928 C.3     1  UNL1        0.0955
      2 C         137.9202  140.3326  163.7135 C.3     1  UNL1        0.0287
      3 C         137.5417  140.5964  162.2862 C.3     1  UNL1        0.0193
      4 C         137.7943  139.5533  161.2382 C.3     1  UNL1        0.0700
      5 C         138.4254  138.2465  161.6176 C.3     1  UNL1        0.0193
      6 C         138.8040  137.9827  163.0449 C.3     1  UNL1        0.0287
      7 C         138.0189  139.3631  162.0073 C.3     1  UNL1        0.1562
      8 O         138.3611  139.1246  163.2979 O.3     1  UNL1       -0.3571
      9 N         137.4158  139.8171  159.8109 N.3     1  UNL1       -0.2926
     10 H         136.5044  140.2749  159.8278 H       1  UNL1        0.1236
     11 C         138.3055  140.6555  158.9418 C.3     1  UNL1        0.1152
     12 C         139.4892  141.3586  159.5374 C.ar    1  UNL1        0.0780
     13 C         140.7487  140.5959  159.8235 C.ar    1  UNL1        0.0544
     14 C         141.9323  141.2991  160.4191 C.ar    1  UNL1        0.1583
     15 C         141.8564  142.7649  160.7285 C.ar    1  UNL1        0.1586
     16 C         140.5969  143.5275  160.4423 C.ar    1  UNL1        0.1199
     17 N         139.4132  142.8244  159.8468 N.ar    1  UNL1       -0.2452
     18 S         143.0400  143.4680  161.3240 S.O2    1  UNL1        0.0168
     19 O         143.8886  144.5686  161.8882 O.2     1  UNL1       -0.1684
     20 O         142.0752  144.6129  161.2338 O.2     1  UNL1       -0.1684
     21 C         144.2996  142.7052  161.6101 C.3     1  UNL1        0.2032
     22 C         144.3754  141.2395  161.3007 C.3     1  UNL1        0.2312
     23 O         143.1918  140.5364  160.7052 O.3     1  UNL1       -0.4722
     24 C         138.9299  138.7619  165.5201 C.3     1  UNL1        0.0604
     25 O         137.8702  139.8637  170.4135 O.2     1  UNL1       -0.2670
     26 C         139.1443  140.4947  169.9354 C.ar    1  UNL1        0.2611
     27 C         139.9563  141.3443  170.8675 C.ar    1  UNL1        0.0623
     28 C         141.2304  141.9753  170.3894 C.ar    1  UNL1        0.0254
     29 C         141.6925  141.7566  168.9792 C.ar    1  UNL1        0.0972
     30 N         142.9067  142.2551  168.2393 N.ar    1  UNL1       -0.2400
     31 C         143.2404  141.9483  166.8094 C.ar    1  UNL1        0.1282
     32 C         142.3280  141.0785  165.9964 C.ar    1  UNL1        0.1588
     33 F         142.6617  140.7717  164.5665 F       1  UNL1       -0.2027
     34 C         141.0820  140.5154  166.6133 C.ar    1  UNL1        0.0500
     35 C         140.8805  140.9070  168.0472 C.ar    1  UNL1        0.0806
     36 N         139.6064  140.2761  168.5253 N.ar    1  UNL1       -0.2915
     37 C         139.0206  139.4945  167.3868 C.3     1  UNL1        0.1402
     38 C         139.9326  139.6424  166.2052 C.3     1  UNL1        0.1335
     39 O         140.6350  139.6063  164.8803 O.3     1  UNL1       -0.3806
     40 H         140.1267  139.0610  164.2596 H       1  UNL1        0.2108
@<TRIPOS>BOND
     1    25    26    2
     2    26    27   ar
     3    27    28   ar
     4    28    29   ar
     5    29    30   ar
     6    30    31   ar
     7    31    32   ar
     8    32    33    1
     9    32    34   ar
    10    34    35   ar
    11    35    36   ar
    12    36    37    1
    13    37    38    1
    14    38    39    1
    15    38    24    1
    16    24     1    1
    17     1     2    1
    18     2     3    1
    19     3     4    1
    20     4     9    1
    21     9    11    1
    22    11    12    1
    23    12    13   ar
    24    13    14   ar
    25    14    15   ar
    26    15    16   ar
    27    16    17   ar
    28    15    18    1
    29    18    19    2
    30    18    20    2
    31    18    21    1
    32    21    22    1
    33    22    23    1
    34     4     5    1
    35     5     6    1
    36     4     7    1
    37     7     8    1
    38    36    26   ar
    39     6     1    1
    40    35    29   ar
    41     8     1    1
    42    38    34    1
    43    17    12   ar
    44    23    14    1
    45    39    40    1
    46     9    10    1
@<TRIPOS>MOLECULE
*****
 40 46 0 0 0
SMALL
GASTEIGER

@<TRIPOS>ATOM
      1 C         138.2932  141.7903  164.7568 C.3     1  UNL1        0.0955
      2 C         138.2236  140.3492  165.1674 C.3     1  UNL1        0.0287
      3 C         139.1209  139.8349  166.2539 C.3     1  UNL1        0.0193
      4 C         140.0876  140.7615  166.9297 C.3     1  UNL1        0.0700
      5 C         140.1572  142.2025  166.5190 C.3     1  UNL1        0.0193
      6 C         139.2599  142.7170  165.4325 C.3     1  UNL1        0.0287
      7 C         139.6161  141.0894  166.3395 C.3     1  UNL1        0.1562
      8 O         138.8049  141.5545  165.3572 O.3     1  UNL1       -0.3571
      9 N         140.9849  140.2471  168.0161 N.3     1  UNL1       -0.2926
     10 H         140.4721  139.5074  168.4960 H       1  UNL1        0.1236
     11 C         142.3332  139.6867  167.6727 C.3     1  UNL1        0.1152
     12 C         142.7679  139.6035  166.2394 C.ar    1  UNL1        0.0780
     13 C         143.3910  140.7947  165.5742 C.ar    1  UNL1        0.0544
     14 C         143.8257  140.7114  164.1409 C.ar    1  UNL1        0.1583
     15 C         143.6372  139.4368  163.3730 C.ar    1  UNL1        0.1586
     16 C         143.0140  138.2455  164.0382 C.ar    1  UNL1        0.1199
     17 N         142.5794  138.3289  165.4714 N.ar    1  UNL1       -0.2452
     18 S         144.0718  139.3534  161.9397 S.O2    1  UNL1        0.0168
     19 O         144.3200  138.7882  160.5727 O.2     1  UNL1       -0.1684
     20 O         143.5349  137.9658  162.1302 O.2     1  UNL1       -0.1684
     21 C         144.6950  140.5448  161.2746 C.3     1  UNL1        0.2032
     22 C         144.8834  141.8193  162.0426 C.3     1  UNL1        0.2312
     23 O         144.4488  141.9027  163.4758 O.3     1  UNL1       -0.4722
     24 C         137.3959  142.3047  163.6703 C.3     1  UNL1        0.0604
     25 O         140.2800  146.1911  161.9790 O.2     1  UNL1       -0.2670
     26 C         140.0203  145.1550  160.9259 C.ar    1  UNL1        0.2611
     27 C         140.5888  145.3268  159.5485 C.ar    1  UNL1        0.0623
     28 C         140.3290  144.2907  158.4953 C.ar    1  UNL1        0.0254
     29 C         139.5008  143.0829  158.8196 C.ar    1  UNL1        0.0972
     30 N         139.0846  141.9042  157.9782 N.ar    1  UNL1       -0.2400
     31 C         138.2423  140.7552  158.4474 C.ar    1  UNL1        0.1282
     32 C         137.7426  140.7198  159.8613 C.ar    1  UNL1        0.1588
     33 F         136.9003  139.5707  160.3305 F       1  UNL1       -0.2027
     34 C         138.0852  141.8334  160.8060 C.ar    1  UNL1        0.0500
     35 C         138.9324  142.9111  160.1970 C.ar    1  UNL1        0.0806
     36 N         139.1921  143.9472  161.2501 N.ar    1  UNL1       -0.2915
     37 C         138.5055  143.5098  162.5100 C.3     1  UNL1        0.1402
     38 C         137.8214  142.2034  162.2355 C.3     1  UNL1        0.1335
     39 O         137.0483  140.9182  162.2609 O.3     1  UNL1       -0.3806
     40 H         136.6704  140.7856  163.1444 H       1  UNL1        0.2108
@<TRIPOS>BOND
     1    25    26    2
     2    26    27   ar
     3    27    28   ar
     4    28    29   ar
     5    29    30   ar
     6    30    31   ar
     7    31    32   ar
     8    32    33    1
     9    32    34   ar
    10    34    35   ar
    11    35    36   ar
    12    36    37    1
    13    37    38    1
    14    38    39    1
    15    38    24    1
    16    24     1    1
    17     1     2    1
    18     2     3    1
    19     3     4    1
    20     4     9    1
    21     9    11    1
    22    11    12    1
    23    12    13   ar
    24    13    14   ar
    25    14    15   ar
    26    15    16   ar
    27    16    17   ar
    28    15    18    1
    29    18    19    2
    30    18    20    2
    31    18    21    1
    32    21    22    1
    33    22    23    1
    34     4     5    1
    35     5     6    1
    36     4     7    1
    37     7     8    1
    38    36    26   ar
    39     6     1    1
    40    35    29   ar
    41     8     1    1
    42    38    34    1
    43    17    12   ar
    44    23    14    1
    45    39    40    1
    46     9    10    1
@<TRIPOS>MOLECULE
*****
 40 46 0 0 0
SMALL
GASTEIGER

@<TRIPOS>ATOM
      1 C         142.1946  137.9590  162.5791 C.3     1  UNL1        0.0955
      2 C         142.4777  138.2524  164.0227 C.3     1  UNL1        0.0287
      3 C         141.3513  138.3074  165.0117 C.3     1  UNL1        0.0193
      4 C         139.9419  138.0689  164.5573 C.3     1  UNL1        0.0700
      5 C         139.6588  137.7755  163.1137 C.3     1  UNL1        0.0193
      6 C         140.7852  137.7206  162.1246 C.3     1  UNL1        0.0287
      7 C         140.5262  138.0285  163.9784 C.3     1  UNL1        0.1562
      8 O         141.5446  137.9788  163.0841 O.3     1  UNL1       -0.3571
      9 N         138.8155  138.1239  165.5463 N.3     1  UNL1       -0.2926
     10 H         139.1856  137.7824  166.4334 H       1  UNL1        0.1236
     11 C         138.1339  139.4285  165.8349 C.3     1  UNL1        0.1152
     12 C         138.4080  140.6248  164.9725 C.ar    1  UNL1        0.0780
     13 C         139.5015  141.5822  165.3434 C.ar    1  UNL1        0.0544
     14 C         139.7755  142.7785  164.4810 C.ar    1  UNL1        0.1583
     15 C         138.9560  143.0173  163.2475 C.ar    1  UNL1        0.1586
     16 C         137.8626  142.0599  162.8765 C.ar    1  UNL1        0.1199
     17 N         137.5885  140.8636  163.7390 N.ar    1  UNL1       -0.2452
     18 S         139.2301  144.2136  162.3850 S.O2    1  UNL1        0.0168
     19 O         139.1099  145.1958  161.2578 O.2     1  UNL1       -0.1684
     20 O         138.0948  143.5973  161.6225 O.2     1  UNL1       -0.1684
     21 C         140.3236  145.1710  162.7561 C.3     1  UNL1        0.2032
     22 C         141.1430  144.9321  163.9895 C.3     1  UNL1        0.2312
     23 O         140.8690  143.7358  164.8520 O.3     1  UNL1       -0.4722
     24 C         143.3210  137.9041  161.5900 C.3     1  UNL1        0.0604
     25 O         142.1033  136.4435  156.8291 O.2     1  UNL1       -0.2670
     26 C         142.5303  137.8793  156.9084 C.ar    1  UNL1        0.2611
     27 C         142.5652  138.7210  155.6673 C.ar    1  UNL1        0.0623
     28 C         142.9922  140.1568  155.7466 C.ar    1  UNL1        0.0254
     29 C         143.3843  140.7508  157.0670 C.ar    1  UNL1        0.0972
     30 N         143.8459  142.1360  157.4394 N.ar    1  UNL1       -0.2400
     31 C         144.2080  142.5892  158.8226 C.ar    1  UNL1        0.1282
     32 C         144.1239  141.6296  159.9724 C.ar    1  UNL1        0.1588
     33 F         144.4860  142.0829  161.3557 F       1  UNL1       -0.2027
     34 C         143.6776  140.2167  159.7390 C.ar    1  UNL1        0.0500
     35 C         143.3495  139.9090  158.3080 C.ar    1  UNL1        0.0806
     36 N         142.9225  138.4733  158.2287 N.ar    1  UNL1       -0.2915
     37 C         142.9867  137.8936  159.6107 C.3     1  UNL1        0.1402
     38 C         143.4534  138.9711  160.5441 C.3     1  UNL1        0.1335
     39 O         143.8925  139.8255  161.6961 O.3     1  UNL1       -0.3806
     40 H         143.8778  139.3008  162.5118 H       1  UNL1        0.2108
@<TRIPOS>BOND
     1    25    26    2
     2    26    27   ar
     3    27    28   ar
     4    28    29   ar
     5    29    30   ar
     6    30    31   ar
     7    31    32   ar
     8    32    33    1
     9    32    34   ar
    10    34    35   ar
    11    35    36   ar
    12    36    37    1
    13    37    38    1
    14    38    39    1
    15    38    24    1
    16    24     1    1
    17     1     2    1
    18     2     3    1
    19     3     4    1
    20     4     9    1
    21     9    11    1
    22    11    12    1
    23    12    13   ar
    24    13    14   ar
    25    14    15   ar
    26    15    16   ar
    27    16    17   ar
    28    15    18    1
    29    18    19    2
    30    18    20    2
    31    18    21    1
    32    21    22    1
    33    22    23    1
    34     4     5    1
    35     5     6    1
    36     4     7    1
    37     7     8    1
    38    36    26   ar
    39     6     1    1
    40    35    29   ar
    41     8     1    1
    42    38    34    1
    43    17    12   ar
    44    23    14    1
    45    39    40    1
    46     9    10    1
@<TRIPOS>MOLECULE
*****
 40 46 0 0 0
SMALL
GASTEIGER

@<TRIPOS>ATOM
      1 C         139.8277  142.7543  165.0827 C.3     1  UNL1        0.0955
      2 C         138.5835  142.1935  164.4601 C.3     1  UNL1        0.0287
      3 C         138.0759  140.8462  164.8811 C.3     1  UNL1        0.0193
      4 C         138.8125  140.0598  165.9247 C.3     1  UNL1        0.0700
      5 C         140.0566  140.6206  166.5472 C.3     1  UNL1        0.0193
      6 C         140.5643  141.9679  166.1263 C.3     1  UNL1        0.0287
      7 C         139.1291  140.7936  165.7264 C.3     1  UNL1        0.1562
      8 O         139.5881  142.0118  165.3457 O.3     1  UNL1       -0.3571
      9 N         138.3049  138.7125  166.3457 N.3     1  UNL1       -0.2926
     10 H         137.2866  138.7716  166.3561 H       1  UNL1        0.1236
     11 C         138.6598  137.4940  165.5461 C.3     1  UNL1        0.1152
     12 C         139.5576  137.6166  164.3507 C.ar    1  UNL1        0.0780
     13 C         138.9688  137.8509  162.9912 C.ar    1  UNL1        0.0544
     14 C         139.8667  137.9735  161.7959 C.ar    1  UNL1        0.1583
     15 C         141.3535  137.8618  161.9601 C.ar    1  UNL1        0.1586
     16 C         141.9423  137.6276  163.3197 C.ar    1  UNL1        0.1199
     17 N         141.0444  137.5050  164.5150 N.ar    1  UNL1       -0.2452
     18 S         142.2514  137.9844  160.7648 S.O2    1  UNL1        0.0168
     19 O         143.5049  138.0314  159.9425 O.2     1  UNL1       -0.1684
     20 O         143.2756  137.7665  161.8388 O.2     1  UNL1       -0.1684
     21 C         141.6624  138.2187  159.4053 C.3     1  UNL1        0.2032
     22 C         140.1756  138.3304  159.2411 C.3     1  UNL1        0.2312
     23 O         139.2777  138.2078  160.4364 O.3     1  UNL1       -0.4722
     24 C         140.3353  144.1016  164.6618 C.3     1  UNL1        0.0604
     25 O         144.0122  141.0761  162.7619 O.2     1  UNL1       -0.2670
     26 C         143.4887  142.0601  161.7580 C.ar    1  UNL1        0.2611
     27 C         144.0469  142.0800  160.3659 C.ar    1  UNL1        0.0623
     28 C         143.5234  143.0640  159.3620 C.ar    1  UNL1        0.0254
     29 C         142.4419  144.0281  159.7502 C.ar    1  UNL1        0.0972
     30 N         141.7380  145.1054  158.9664 N.ar    1  UNL1       -0.2400
     31 C         140.6603  146.0036  159.4972 C.ar    1  UNL1        0.1282
     32 C         140.2021  145.8662  160.9188 C.ar    1  UNL1        0.1588
     33 F         139.1243  146.7644  161.4496 F       1  UNL1       -0.2027
     34 C         140.8216  144.8306  161.8098 C.ar    1  UNL1        0.0500
     35 C         141.8837  144.0081  161.1424 C.ar    1  UNL1        0.0806
     36 N         142.4072  143.0241  162.1462 N.ar    1  UNL1       -0.2915
     37 C         141.6685  143.2385  163.4341 C.3     1  UNL1        0.1402
     38 C         140.6886  144.3549  163.2261 C.3     1  UNL1        0.1335
     39 O         139.6348  145.4184  163.3183 O.3     1  UNL1       -0.3806
     40 H         139.2586  145.4242  164.2124 H       1  UNL1        0.2108
@<TRIPOS>BOND
     1    25    26    2
     2    26    27   ar
     3    27    28   ar
     4    28    29   ar
     5    29    30   ar
     6    30    31   ar
     7    31    32   ar
     8    32    33    1
     9    32    34   ar
    10    34    35   ar
    11    35    36   ar
    12    36    37    1
    13    37    38    1
    14    38    39    1
    15    38    24    1
    16    24     1    1
    17     1     2    1
    18     2     3    1
    19     3     4    1
    20     4     9    1
    21     9    11    1
    22    11    12    1
    23    12    13   ar
    24    13    14   ar
    25    14    15   ar
    26    15    16   ar
    27    16    17   ar
    28    15    18    1
    29    18    19    2
    30    18    20    2
    31    18    21    1
    32    21    22    1
    33    22    23    1
    34     4     5    1
    35     5     6    1
    36     4     7    1
    37     7     8    1
    38    36    26   ar
    39     6     1    1
    40    35    29   ar
    41     8     1    1
    42    38    34    1
    43    17    12   ar
    44    23    14    1
    45    39    40    1
    46     9    10    1
@<TRIPOS>MOLECULE
*****
 40 46 0 0 0
SMALL
GASTEIGER

@<TRIPOS>ATOM
      1 C         137.8316  140.9331  161.5915 C.3     1  UNL1        0.0955
      2 C         137.5139  140.6929  163.0377 C.3     1  UNL1        0.0287
      3 C         137.4811  141.8436  163.9995 C.3     1  UNL1        0.0193
      4 C         137.7659  143.2343  163.5150 C.3     1  UNL1        0.0700
      5 C         138.0836  143.4744  162.0689 C.3     1  UNL1        0.0193
      6 C         138.1164  142.3238  161.1070 C.3     1  UNL1        0.0287
      7 C         137.7956  142.6355  162.9505 C.3     1  UNL1        0.1562
      8 O         137.8253  141.5951  162.0809 O.3     1  UNL1       -0.3571
      9 N         137.7330  144.3850  164.4768 N.3     1  UNL1       -0.2926
     10 H         137.0691  144.1368  165.2103 H       1  UNL1        0.1236
     11 C         138.9922  144.8249  165.1631 C.3     1  UNL1        0.1152
     12 C         140.2768  144.0909  164.9160 C.ar    1  UNL1        0.0780
     13 C         141.1842  144.5213  163.8018 C.ar    1  UNL1        0.0544
     14 C         142.4688  143.7872  163.5548 C.ar    1  UNL1        0.1583
     15 C         142.8460  142.6228  164.4218 C.ar    1  UNL1        0.1586
     16 C         141.9386  142.1924  165.5360 C.ar    1  UNL1        0.1199
     17 N         140.6540  142.9264  165.7830 N.ar    1  UNL1       -0.2452
     18 S         144.1306  141.8888  164.1748 S.O2    1  UNL1        0.0168
     19 O         145.2329  140.8842  164.3338 O.2     1  UNL1       -0.1684
     20 O         143.6060  141.1095  165.3442 O.2     1  UNL1       -0.1684
     21 C         145.0380  142.3193  163.0605 C.3     1  UNL1        0.2032
     22 C         144.6607  143.4837  162.1935 C.3     1  UNL1        0.2312
     23 O         143.3761  144.2177  162.4406 O.3     1  UNL1       -0.4722
     24 C         137.8645  139.7824  160.6297 C.3     1  UNL1        0.0604
     25 O         141.5995  138.7695  163.9921 O.2     1  UNL1       -0.2670
     26 C         142.0264  138.5719  162.5678 C.ar    1  UNL1        0.2611
     27 C         143.4237  138.1221  162.2591 C.ar    1  UNL1        0.0623
     28 C         143.8506  137.9246  160.8348 C.ar    1  UNL1        0.0254
     29 C         142.8803  138.1768  159.7191 C.ar    1  UNL1        0.0972
     30 N         143.0285  138.0630  158.2240 N.ar    1  UNL1       -0.2400
     31 C         141.9534  138.3529  157.2190 C.ar    1  UNL1        0.1282
     32 C         140.5965  138.7969  157.6793 C.ar    1  UNL1        0.1588
     33 F         139.5214  139.0868  156.6743 F       1  UNL1       -0.2027
     34 C         140.3149  138.9510  159.1445 C.ar    1  UNL1        0.0500
     35 C         141.4830  138.6266  160.0278 C.ar    1  UNL1        0.0806
     36 N         141.0561  138.8241  161.4521 N.ar    1  UNL1       -0.2915
     37 C         139.6241  139.2706  161.4491 C.3     1  UNL1        0.1402
     38 C         139.1660  139.3490  160.0229 C.3     1  UNL1        0.1335
     39 O         138.4358  139.5180  158.7236 O.3     1  UNL1       -0.3806
     40 H         137.5273  139.8093  158.8987 H       1  UNL1        0.2108
@<TRIPOS>BOND
     1    25    26    2
     2    26    27   ar
     3    27    28   ar
     4    28    29   ar
     5    29    30   ar
     6    30    31   ar
     7    31    32   ar
     8    32    33    1
     9    32    34   ar
    10    34    35   ar
    11    35    36   ar
    12    36    37    1
    13    37    38    1
    14    38    39    1
    15    38    24    1
    16    24     1    1
    17     1     2    1
    18     2     3    1
    19     3     4    1
    20     4     9    1
    21     9    11    1
    22    11    12    1
    23    12    13   ar
    24    13    14   ar
    25    14    15   ar
    26    15    16   ar
    27    16    17   ar
    28    15    18    1
    29    18    19    2
    30    18    20    2
    31    18    21    1
    32    21    22    1
    33    22    23    1
    34     4     5    1
    35     5     6    1
    36     4     7    1
    37     7     8    1
    38    36    26   ar
    39     6     1    1
    40    35    29   ar
    41     8     1    1
    42    38    34    1
    43    17    12   ar
    44    23    14    1
    45    39    40    1
    46     9    10    1
