@<TRIPOS>MOLECULE
*****
 33 36 0 0 0
SMALL
GASTEIGER

@<TRIPOS>ATOM
      1 C         142.6069  140.9926  168.0132 C.ar    1  UNL1       -0.0227
      2 C         142.9185  139.6674  167.3833 C.ar    1  UNL1       -0.0050
      3 C         142.5232  139.4016  165.9609 C.ar    1  UNL1        0.0208
      4 C         141.8162  140.4611  165.1685 C.ar    1  UNL1       -0.0007
      5 C         141.5046  141.7862  165.7985 C.ar    1  UNL1       -0.0005
      6 C         141.8999  142.0520  167.2208 C.ar    1  UNL1       -0.0043
      7 C         140.7976  142.8456  165.0061 C.ar    1  UNL1       -0.0001
      8 C         139.5063  143.4210  165.5076 C.ar    1  UNL1        0.0031
      9 C         138.7994  144.4803  164.7153 C.ar    1  UNL1        0.0366
     10 C         139.3837  144.9644  163.4213 C.ar    1  UNL1        0.1360
     11 C         140.6750  144.3891  162.9198 C.ar    1  UNL1        0.0294
     12 C         141.3819  143.3297  163.7122 C.ar    1  UNL1        0.0001
     13 C         141.0066  145.0588  161.6192 C.3     1  UNL1        0.1208
     14 N         142.2129  144.7870  160.7700 N.3     1  UNL1       -0.3157
     15 C         139.9204  146.0481  161.3170 C.3     1  UNL1        0.2253
     16 O         138.9173  145.9897  162.4307 O.3     1  UNL1       -0.4739
     17 H         142.7852  144.0680  161.2126 H       1  UNL1        0.1192
     18 H         142.7587  145.6429  160.6709 H       1  UNL1        0.1192
     19 C         143.7579  142.5067  169.7832 C.3     1  UNL1        0.0047
     20 C         143.0023  141.2584  169.4356 C.3     1  UNL1        0.0223
     21 C         142.6421  140.2759  170.5102 C.3     1  UNL1        0.0047
     22 C         142.8347  138.0765  165.3310 C.3     1  UNL1        0.2320
     23 O         141.7199  137.1637  164.9138 O.3     1  UNL1       -0.4710
     24 C         140.8402  137.5344  163.7568 C.ar    1  UNL1        0.1354
     25 C         141.4375  137.7410  162.3965 C.ar    1  UNL1        0.0366
     26 C         140.5577  138.1118  161.2395 C.ar    1  UNL1        0.0031
     27 C         139.0807  138.2759  161.4429 C.ar    1  UNL1       -0.0001
     28 C         138.4834  138.0693  162.8032 C.ar    1  UNL1       -0.0009
     29 C         139.3631  137.6986  163.9602 C.ar    1  UNL1        0.0174
     30 C         138.7658  137.4919  165.3205 C.3     1  UNL1        0.0710
     31 C         138.1097  138.6371  166.0334 C.2     1  UNL1        0.0548
     32 O         138.3914  140.0470  165.6058 O.co2   1  UNL1       -0.5488
     33 O         137.1719  138.3723  167.1738 O.co2   1  UNL1       -0.5488
@<TRIPOS>UNITY_ATOM_ATTR
32 1
charge -1
@<TRIPOS>BOND
     1    19    20    1
     2    20    21    1
     3    20     1    1
     4     1     2   ar
     5     2     3   ar
     6     3    22    1
     7    22    23    1
     8    23    24    1
     9    24    25   ar
    10    25    26   ar
    11    26    27   ar
    12    27    28   ar
    13    28    29   ar
    14    29    30    1
    15    30    31    1
    16    31    32   ar
    17    31    33   ar
    18     3     4   ar
    19     4     5   ar
    20     5     7    1
    21     7     8   ar
    22     8     9   ar
    23     9    10   ar
    24    10    11   ar
    25    11    12   ar
    26    11    13    1
    27    13    14    1
    28    13    15    1
    29    15    16    1
    30     5     6   ar
    31     6     1   ar
    32    29    24   ar
    33    12     7   ar
    34    16    10    1
    35    14    17    1
    36    14    18    1
@<TRIPOS>MOLECULE
*****
 33 36 0 0 0
SMALL
GASTEIGER

@<TRIPOS>ATOM
      1 C         141.0324  140.5707  168.2141 C.ar    1  UNL1       -0.0227
      2 C         142.0556  139.5977  167.7078 C.ar    1  UNL1       -0.0050
      3 C         142.4851  139.6407  166.2712 C.ar    1  UNL1        0.0208
      4 C         141.8913  140.6568  165.3410 C.ar    1  UNL1       -0.0007
      5 C         140.8682  141.6298  165.8474 C.ar    1  UNL1       -0.0005
      6 C         140.4387  141.5867  167.2840 C.ar    1  UNL1       -0.0043
      7 C         140.2745  142.6458  164.9172 C.ar    1  UNL1       -0.0001
      8 C         138.8573  143.0990  165.1073 C.ar    1  UNL1        0.0031
      9 C         138.2636  144.1150  164.1771 C.ar    1  UNL1        0.0366
     10 C         139.0872  144.6778  163.0569 C.ar    1  UNL1        0.1360
     11 C         140.5043  144.2247  162.8668 C.ar    1  UNL1        0.0294
     12 C         141.0980  143.2087  163.7969 C.ar    1  UNL1        0.0001
     13 C         141.0685  144.9516  161.6822 C.3     1  UNL1        0.1208
     14 N         142.4573  144.8023  161.1356 N.3     1  UNL1       -0.3157
     15 C         139.9999  145.8541  161.1401 C.3     1  UNL1        0.2253
     16 O         138.7754  145.6849  161.9897 O.3     1  UNL1       -0.4739
     17 H         142.9720  144.1229  161.6959 H       1  UNL1        0.1192
     18 H         142.9349  145.7029  161.1701 H       1  UNL1        0.1192
     19 C         139.1514  140.3705  169.9952 C.3     1  UNL1        0.0047
     20 C         140.6029  140.5277  169.6507 C.3     1  UNL1        0.0223
     21 C         141.6248  140.6420  170.7427 C.3     1  UNL1        0.0047
     22 C         143.5082  138.6678  165.7648 C.3     1  UNL1        0.2320
     23 O         144.6456  139.1503  164.9142 O.3     1  UNL1       -0.4710
     24 C         144.4013  139.5411  163.4868 C.ar    1  UNL1        0.1354
     25 C         143.7657  138.5662  162.5404 C.ar    1  UNL1        0.0366
     26 C         143.5215  138.9571  161.1130 C.ar    1  UNL1        0.0031
     27 C         143.9128  140.3229  160.6319 C.ar    1  UNL1       -0.0001
     28 C         144.5484  141.2978  161.5782 C.ar    1  UNL1       -0.0009
     29 C         144.7926  140.9070  163.0056 C.ar    1  UNL1        0.0174
     30 C         145.4282  141.8819  163.9520 C.3     1  UNL1        0.0710
     31 C         144.6591  143.0807  164.4222 C.2     1  UNL1        0.0548
     32 O         144.3323  144.1860  163.4623 O.co2   1  UNL1       -0.5488
     33 O         144.2168  143.1743  165.8525 O.co2   1  UNL1       -0.5488
@<TRIPOS>UNITY_ATOM_ATTR
32 1
charge -1
@<TRIPOS>BOND
     1    19    20    1
     2    20    21    1
     3    20     1    1
     4     1     2   ar
     5     2     3   ar
     6     3    22    1
     7    22    23    1
     8    23    24    1
     9    24    25   ar
    10    25    26   ar
    11    26    27   ar
    12    27    28   ar
    13    28    29   ar
    14    29    30    1
    15    30    31    1
    16    31    32   ar
    17    31    33   ar
    18     3     4   ar
    19     4     5   ar
    20     5     7    1
    21     7     8   ar
    22     8     9   ar
    23     9    10   ar
    24    10    11   ar
    25    11    12   ar
    26    11    13    1
    27    13    14    1
    28    13    15    1
    29    15    16    1
    30     5     6   ar
    31     6     1   ar
    32    29    24   ar
    33    12     7   ar
    34    16    10    1
    35    14    17    1
    36    14    18    1
@<TRIPOS>MOLECULE
*****
 33 36 0 0 0
SMALL
GASTEIGER

@<TRIPOS>ATOM
      1 C         140.4668  144.1482  163.7412 C.ar    1  UNL1       -0.0227
      2 C         141.9102  144.1911  163.3350 C.ar    1  UNL1       -0.0050
      3 C         142.9376  143.4498  164.1379 C.ar    1  UNL1        0.0208
      4 C         142.5217  142.6655  165.3471 C.ar    1  UNL1       -0.0007
      5 C         141.0785  142.6227  165.7533 C.ar    1  UNL1       -0.0005
      6 C         140.0510  143.3640  164.9504 C.ar    1  UNL1       -0.0043
      7 C         140.6626  141.8385  166.9626 C.ar    1  UNL1       -0.0001
      8 C         139.6569  140.7334  166.8304 C.ar    1  UNL1        0.0031
      9 C         139.2411  139.9493  168.0396 C.ar    1  UNL1        0.0366
     10 C         139.8309  140.2702  169.3809 C.ar    1  UNL1        0.1360
     11 C         140.8366  141.3752  169.5131 C.ar    1  UNL1        0.0294
     12 C         141.2524  142.1593  168.3039 C.ar    1  UNL1        0.0001
     13 C         141.2429  141.4623  170.9543 C.3     1  UNL1        0.1208
     14 N         142.2304  142.4306  171.5350 N.3     1  UNL1       -0.3157
     15 C         140.4883  140.4110  171.7130 C.3     1  UNL1        0.2253
     16 O         139.6156  139.6742  170.7406 O.3     1  UNL1       -0.4739
     17 H         142.5922  143.0321  170.7950 H       1  UNL1        0.1192
     18 H         143.0006  141.9158  171.9618 H       1  UNL1        0.1192
     19 C         139.8574  146.0221  162.0479 C.3     1  UNL1        0.0047
     20 C         139.4393  144.8895  162.9383 C.3     1  UNL1        0.0223
     21 C         137.9939  144.4984  163.0257 C.3     1  UNL1        0.0047
     22 C         144.3809  143.4926  163.7317 C.3     1  UNL1        0.2320
     23 O         145.1547  142.2170  163.5769 O.3     1  UNL1       -0.4710
     24 C         144.6391  141.1313  162.6794 C.ar    1  UNL1        0.1354
     25 C         144.2878  141.4400  161.2542 C.ar    1  UNL1        0.0366
     26 C         143.7722  140.3542  160.3567 C.ar    1  UNL1        0.0031
     27 C         143.6080  138.9598  160.8845 C.ar    1  UNL1       -0.0001
     28 C         143.9593  138.6511  162.3097 C.ar    1  UNL1       -0.0009
     29 C         144.4749  139.7368  163.2072 C.ar    1  UNL1        0.0174
     30 C         144.8262  139.4280  164.6324 C.3     1  UNL1        0.0710
     31 C         143.8015  138.8179  165.5422 C.2     1  UNL1        0.0548
     32 O         144.2343  137.9282  166.6695 O.co2   1  UNL1       -0.5488
     33 O         142.3439  139.0976  165.3246 O.co2   1  UNL1       -0.5488
@<TRIPOS>UNITY_ATOM_ATTR
32 1
charge -1
@<TRIPOS>BOND
     1    19    20    1
     2    20    21    1
     3    20     1    1
     4     1     2   ar
     5     2     3   ar
     6     3    22    1
     7    22    23    1
     8    23    24    1
     9    24    25   ar
    10    25    26   ar
    11    26    27   ar
    12    27    28   ar
    13    28    29   ar
    14    29    30    1
    15    30    31    1
    16    31    32   ar
    17    31    33   ar
    18     3     4   ar
    19     4     5   ar
    20     5     7    1
    21     7     8   ar
    22     8     9   ar
    23     9    10   ar
    24    10    11   ar
    25    11    12   ar
    26    11    13    1
    27    13    14    1
    28    13    15    1
    29    15    16    1
    30     5     6   ar
    31     6     1   ar
    32    29    24   ar
    33    12     7   ar
    34    16    10    1
    35    14    17    1
    36    14    18    1
@<TRIPOS>MOLECULE
*****
 33 36 0 0 0
SMALL
GASTEIGER

@<TRIPOS>ATOM
      1 C         143.7941  140.3425  163.7654 C.ar    1  UNL1       -0.0227
      2 C         143.0454  139.2501  163.0610 C.ar    1  UNL1       -0.0050
      3 C         142.0539  138.4139  163.8145 C.ar    1  UNL1        0.0208
      4 C         141.8111  138.6702  165.2724 C.ar    1  UNL1       -0.0007
      5 C         142.5598  139.7626  165.9767 C.ar    1  UNL1       -0.0005
      6 C         143.5513  140.5987  165.2232 C.ar    1  UNL1       -0.0043
      7 C         142.3170  140.0188  167.4347 C.ar    1  UNL1       -0.0001
      8 C         142.7689  139.0189  168.4573 C.ar    1  UNL1        0.0031
      9 C         142.5261  139.2752  169.9152 C.ar    1  UNL1        0.0366
     10 C         141.8315  140.5314  170.3503 C.ar    1  UNL1        0.1360
     11 C         141.3796  141.5313  169.3277 C.ar    1  UNL1        0.0294
     12 C         141.6224  141.2751  167.8698 C.ar    1  UNL1        0.0001
     13 C         140.7253  142.6708  170.0511 C.3     1  UNL1        0.1208
     14 N         140.1284  143.8917  169.4162 N.3     1  UNL1       -0.3157
     15 C         140.7727  142.3751  171.5209 C.3     1  UNL1        0.2253
     16 O         141.4564  141.0529  171.7059 O.3     1  UNL1       -0.4739
     17 H         140.2335  143.8341  168.4033 H       1  UNL1        0.1192
     18 H         140.6079  144.7233  169.7610 H       1  UNL1        0.1192
     19 C         146.0123  141.6939  163.7047 C.3     1  UNL1        0.0047
     20 C         144.7856  141.1786  163.0119 C.3     1  UNL1        0.0223
     21 C         144.5506  141.4995  161.5656 C.3     1  UNL1        0.0047
     22 C         141.3052  137.3216  163.1101 C.3     1  UNL1        0.2320
     23 O         139.8223  137.4345  162.9141 O.3     1  UNL1       -0.4710
     24 C         139.1363  138.7518  163.1233 C.ar    1  UNL1        0.1354
     25 C         139.0975  139.7616  162.0148 C.ar    1  UNL1        0.0366
     26 C         138.4114  141.0791  162.2241 C.ar    1  UNL1        0.0031
     27 C         137.7641  141.3866  163.5417 C.ar    1  UNL1       -0.0001
     28 C         137.8028  140.3768  164.6502 C.ar    1  UNL1       -0.0009
     29 C         138.4889  139.0594  164.4411 C.ar    1  UNL1        0.0174
     30 C         138.5276  138.0496  165.5495 C.3     1  UNL1        0.0710
     31 C         137.9799  138.3987  166.9016 C.2     1  UNL1        0.0548
     32 O         136.6784  137.8095  167.3585 O.co2   1  UNL1       -0.5488
     33 O         138.7337  139.3371  167.7967 O.co2   1  UNL1       -0.5488
@<TRIPOS>UNITY_ATOM_ATTR
32 1
charge -1
@<TRIPOS>BOND
     1    19    20    1
     2    20    21    1
     3    20     1    1
     4     1     2   ar
     5     2     3   ar
     6     3    22    1
     7    22    23    1
     8    23    24    1
     9    24    25   ar
    10    25    26   ar
    11    26    27   ar
    12    27    28   ar
    13    28    29   ar
    14    29    30    1
    15    30    31    1
    16    31    32   ar
    17    31    33   ar
    18     3     4   ar
    19     4     5   ar
    20     5     7    1
    21     7     8   ar
    22     8     9   ar
    23     9    10   ar
    24    10    11   ar
    25    11    12   ar
    26    11    13    1
    27    13    14    1
    28    13    15    1
    29    15    16    1
    30     5     6   ar
    31     6     1   ar
    32    29    24   ar
    33    12     7   ar
    34    16    10    1
    35    14    17    1
    36    14    18    1
@<TRIPOS>MOLECULE
*****
 33 36 0 0 0
SMALL
GASTEIGER

@<TRIPOS>ATOM
      1 C         141.4478  139.4426  163.5052 C.ar    1  UNL1       -0.0227
      2 C         140.1820  139.6794  162.7359 C.ar    1  UNL1       -0.0050
      3 C         138.9533  140.1664  163.4452 C.ar    1  UNL1        0.0208
      4 C         138.9904  140.4165  164.9238 C.ar    1  UNL1       -0.0007
      5 C         140.2561  140.1797  165.6930 C.ar    1  UNL1       -0.0005
      6 C         141.4849  139.6928  164.9837 C.ar    1  UNL1       -0.0043
      7 C         140.2932  140.4299  167.1716 C.ar    1  UNL1       -0.0001
      8 C         139.1788  139.9337  168.0444 C.ar    1  UNL1        0.0031
      9 C         139.2160  140.1839  169.5229 C.ar    1  UNL1        0.0366
     10 C         140.3675  140.9302  170.1286 C.ar    1  UNL1        0.1360
     11 C         141.4819  141.4264  169.2558 C.ar    1  UNL1        0.0294
     12 C         141.4448  141.1762  167.7773 C.ar    1  UNL1        0.0001
     13 C         142.4790  142.1269  170.1305 C.3     1  UNL1        0.1208
     14 N         143.7509  142.7766  169.6722 N.3     1  UNL1       -0.3157
     15 C         141.9808  142.0637  171.5440 C.3     1  UNL1        0.2253
     16 O         140.6758  141.3241  171.5428 O.3     1  UNL1       -0.4739
     17 H         143.8416  142.6714  168.6617 H       1  UNL1        0.1192
     18 H         144.5450  142.3320  170.1330 H       1  UNL1        0.1192
     19 C         144.0319  139.1981  163.3913 C.3     1  UNL1        0.0047
     20 C         142.6765  138.9557  162.7959 C.3     1  UNL1        0.0223
     21 C         142.5500  138.2264  161.4913 C.3     1  UNL1        0.0047
     22 C         137.6875  140.4031  162.6761 C.3     1  UNL1        0.2320
     23 O         137.2005  141.8031  162.4459 O.3     1  UNL1       -0.4710
     24 C         138.1545  142.8615  161.9774 C.ar    1  UNL1        0.1354
     25 C         138.8254  142.7289  160.6424 C.ar    1  UNL1        0.0366
     26 C         139.7794  143.7874  160.1740 C.ar    1  UNL1        0.0031
     27 C         140.0625  144.9785  161.0406 C.ar    1  UNL1       -0.0001
     28 C         139.3916  145.1112  162.3756 C.ar    1  UNL1       -0.0009
     29 C         138.4376  144.0527  162.8440 C.ar    1  UNL1        0.0174
     30 C         137.7667  144.1854  164.1791 C.3     1  UNL1        0.0710
     31 C         138.5770  144.5227  165.3954 C.2     1  UNL1        0.0548
     32 O         138.1176  145.6058  166.3259 O.co2   1  UNL1       -0.5488
     33 O         139.8468  143.7770  165.6813 O.co2   1  UNL1       -0.5488
@<TRIPOS>UNITY_ATOM_ATTR
32 1
charge -1
@<TRIPOS>BOND
     1    19    20    1
     2    20    21    1
     3    20     1    1
     4     1     2   ar
     5     2     3   ar
     6     3    22    1
     7    22    23    1
     8    23    24    1
     9    24    25   ar
    10    25    26   ar
    11    26    27   ar
    12    27    28   ar
    13    28    29   ar
    14    29    30    1
    15    30    31    1
    16    31    32   ar
    17    31    33   ar
    18     3     4   ar
    19     4     5   ar
    20     5     7    1
    21     7     8   ar
    22     8     9   ar
    23     9    10   ar
    24    10    11   ar
    25    11    12   ar
    26    11    13    1
    27    13    14    1
    28    13    15    1
    29    15    16    1
    30     5     6   ar
    31     6     1   ar
    32    29    24   ar
    33    12     7   ar
    34    16    10    1
    35    14    17    1
    36    14    18    1
@<TRIPOS>MOLECULE
*****
 33 36 0 0 0
SMALL
GASTEIGER

@<TRIPOS>ATOM
      1 C         142.7446  143.3179  164.0446 C.ar    1  UNL1       -0.0227
      2 C         141.7465  144.2306  163.3958 C.ar    1  UNL1       -0.0050
      3 C         140.3599  144.3452  163.9563 C.ar    1  UNL1        0.0208
      4 C         139.9714  143.5472  165.1656 C.ar    1  UNL1       -0.0007
      5 C         140.9695  142.6346  165.8143 C.ar    1  UNL1       -0.0005
      6 C         142.3561  142.5200  165.2538 C.ar    1  UNL1       -0.0043
      7 C         140.5810  141.8366  167.0236 C.ar    1  UNL1       -0.0001
      8 C         139.6065  140.7037  166.8933 C.ar    1  UNL1        0.0031
      9 C         139.2181  139.9058  168.1025 C.ar    1  UNL1        0.0366
     10 C         139.8041  140.2407  169.4421 C.ar    1  UNL1        0.1360
     11 C         140.7786  141.3735  169.5724 C.ar    1  UNL1        0.0294
     12 C         141.1670  142.1715  168.3632 C.ar    1  UNL1        0.0001
     13 C         141.1882  141.4693  171.0122 C.3     1  UNL1        0.1208
     14 N         142.1502  142.4641  171.5909 N.3     1  UNL1       -0.3157
     15 C         140.4668  140.3956  171.7718 C.3     1  UNL1        0.2253
     16 O         139.6114  139.6362  170.8014 O.3     1  UNL1       -0.4739
     17 H         142.4917  143.0771  170.8506 H       1  UNL1        0.1192
     18 H         142.9364  141.9706  172.0135 H       1  UNL1        0.1192
     19 C         144.4972  143.9424  162.2312 C.3     1  UNL1        0.0047
     20 C         144.1312  143.2033  163.4841 C.3     1  UNL1        0.0223
     21 C         145.1519  142.3496  164.1765 C.3     1  UNL1        0.0047
     22 C         139.3618  145.2578  163.3076 C.3     1  UNL1        0.2320
     23 O         138.2781  144.6889  162.4404 O.3     1  UNL1       -0.4710
     24 C         138.2275  143.2137  162.1741 C.ar    1  UNL1        0.1354
     25 C         137.5136  142.3032  163.1287 C.ar    1  UNL1        0.0366
     26 C         137.4631  140.8278  162.8623 C.ar    1  UNL1        0.0031
     27 C         138.1265  140.2631  161.6413 C.ar    1  UNL1       -0.0001
     28 C         138.8404  141.1735  160.6867 C.ar    1  UNL1       -0.0009
     29 C         138.8910  142.6488  160.9530 C.ar    1  UNL1        0.0174
     30 C         139.6049  143.5593  159.9984 C.3     1  UNL1        0.0710
     31 C         141.0962  143.7024  160.0717 C.2     1  UNL1        0.0548
     32 O         141.7237  145.0626  159.9949 O.co2   1  UNL1       -0.5488
     33 O         141.9600  142.4853  160.2219 O.co2   1  UNL1       -0.5488
@<TRIPOS>UNITY_ATOM_ATTR
32 1
charge -1
@<TRIPOS>BOND
     1    19    20    1
     2    20    21    1
     3    20     1    1
     4     1     2   ar
     5     2     3   ar
     6     3    22    1
     7    22    23    1
     8    23    24    1
     9    24    25   ar
    10    25    26   ar
    11    26    27   ar
    12    27    28   ar
    13    28    29   ar
    14    29    30    1
    15    30    31    1
    16    31    32   ar
    17    31    33   ar
    18     3     4   ar
    19     4     5   ar
    20     5     7    1
    21     7     8   ar
    22     8     9   ar
    23     9    10   ar
    24    10    11   ar
    25    11    12   ar
    26    11    13    1
    27    13    14    1
    28    13    15    1
    29    15    16    1
    30     5     6   ar
    31     6     1   ar
    32    29    24   ar
    33    12     7   ar
    34    16    10    1
    35    14    17    1
    36    14    18    1
@<TRIPOS>MOLECULE
*****
 33 36 0 0 0
SMALL
GASTEIGER

@<TRIPOS>ATOM
      1 C         140.2628  144.3703  163.6276 C.ar    1  UNL1       -0.0227
      2 C         141.6961  144.5901  163.2438 C.ar    1  UNL1       -0.0050
      3 C         142.7930  143.9529  164.0443 C.ar    1  UNL1        0.0208
      4 C         142.4566  143.0961  165.2287 C.ar    1  UNL1       -0.0007
      5 C         141.0233  142.8764  165.6125 C.ar    1  UNL1       -0.0005
      6 C         139.9264  143.5135  164.8119 C.ar    1  UNL1       -0.0043
      7 C         140.6868  142.0195  166.7969 C.ar    1  UNL1       -0.0001
      8 C         139.7589  140.8517  166.6383 C.ar    1  UNL1        0.0031
      9 C         139.4225  139.9950  167.8226 C.ar    1  UNL1        0.0366
     10 C         140.0140  140.3060  169.1655 C.ar    1  UNL1        0.1360
     11 C         140.9419  141.4738  169.3241 C.ar    1  UNL1        0.0294
     12 C         141.2783  142.3306  168.1398 C.ar    1  UNL1        0.0001
     13 C         141.3686  141.5349  170.7608 C.3     1  UNL1        0.1208
     14 N         142.2966  142.5482  171.3625 N.3     1  UNL1       -0.3157
     15 C         140.7045  140.4049  171.4902 C.3     1  UNL1        0.2253
     16 O         139.8672  139.6453  170.5043 O.3     1  UNL1       -0.4739
     17 H         142.6010  143.2014  170.6406 H       1  UNL1        0.1192
     18 H         143.1092  142.0736  171.7561 H       1  UNL1        0.1192
     19 C         137.7584  144.5029  162.9487 C.3     1  UNL1        0.0047
     20 C         139.1659  145.0075  162.8271 C.3     1  UNL1        0.0223
     21 C         139.4763  146.1491  161.9050 C.3     1  UNL1        0.0047
     22 C         144.2263  144.1726  163.6606 C.3     1  UNL1        0.2320
     23 O         144.9298  143.1770  162.7865 O.3     1  UNL1       -0.4710
     24 C         144.6203  141.7150  162.9156 C.ar    1  UNL1        0.1354
     25 C         145.2982  140.8954  163.9732 C.ar    1  UNL1        0.0366
     26 C         144.9886  139.4333  164.1023 C.ar    1  UNL1        0.0031
     27 C         144.0012  138.7910  163.1737 C.ar    1  UNL1       -0.0001
     28 C         143.3233  139.6106  162.1161 C.ar    1  UNL1       -0.0009
     29 C         143.6328  141.0726  161.9870 C.ar    1  UNL1        0.0174
     30 C         142.9549  141.8923  160.9294 C.3     1  UNL1        0.0710
     31 C         141.5961  141.4980  160.4310 C.2     1  UNL1        0.0548
     32 O         140.3791  141.7974  161.2550 O.co2   1  UNL1       -0.5488
     33 O         141.4545  140.8043  159.1086 O.co2   1  UNL1       -0.5488
@<TRIPOS>UNITY_ATOM_ATTR
32 1
charge -1
@<TRIPOS>BOND
     1    19    20    1
     2    20    21    1
     3    20     1    1
     4     1     2   ar
     5     2     3   ar
     6     3    22    1
     7    22    23    1
     8    23    24    1
     9    24    25   ar
    10    25    26   ar
    11    26    27   ar
    12    27    28   ar
    13    28    29   ar
    14    29    30    1
    15    30    31    1
    16    31    32   ar
    17    31    33   ar
    18     3     4   ar
    19     4     5   ar
    20     5     7    1
    21     7     8   ar
    22     8     9   ar
    23     9    10   ar
    24    10    11   ar
    25    11    12   ar
    26    11    13    1
    27    13    14    1
    28    13    15    1
    29    15    16    1
    30     5     6   ar
    31     6     1   ar
    32    29    24   ar
    33    12     7   ar
    34    16    10    1
    35    14    17    1
    36    14    18    1
@<TRIPOS>MOLECULE
*****
 33 36 0 0 0
SMALL
GASTEIGER

@<TRIPOS>ATOM
      1 C         141.8188  143.3655  163.1006 C.ar    1  UNL1       -0.0227
      2 C         140.3830  143.4435  162.6734 C.ar    1  UNL1       -0.0050
      3 C         139.2911  143.1283  163.6524 C.ar    1  UNL1        0.0208
      4 C         139.6350  142.7351  165.0586 C.ar    1  UNL1       -0.0007
      5 C         141.0707  142.6571  165.4857 C.ar    1  UNL1       -0.0005
      6 C         142.1626  142.9722  164.5067 C.ar    1  UNL1       -0.0043
      7 C         141.4146  142.2638  166.8918 C.ar    1  UNL1       -0.0001
      8 C         142.7961  142.5085  167.4224 C.ar    1  UNL1        0.0031
      9 C         143.1400  142.1153  168.8285 C.ar    1  UNL1        0.0366
     10 C         142.1023  141.4774  169.7040 C.ar    1  UNL1        0.1360
     11 C         140.7209  141.2327  169.1733 C.ar    1  UNL1        0.0294
     12 C         140.3770  141.6259  167.7673 C.ar    1  UNL1        0.0001
     13 C         139.9130  140.5910  170.2622 C.3     1  UNL1        0.1208
     14 N         138.4754  140.1743  170.1645 N.3     1  UNL1       -0.3157
     15 C         140.7953  140.4390  171.4658 C.3     1  UNL1        0.2253
     16 O         142.1484  140.9868  171.1208 O.3     1  UNL1       -0.4739
     17 H         138.1201  140.3944  169.2341 H       1  UNL1        0.1192
     18 H         137.9280  140.6749  170.8647 H       1  UNL1        0.1192
     19 C         144.1831  144.3175  162.5967 C.3     1  UNL1        0.0047
     20 C         142.9107  143.6807  162.1216 C.3     1  UNL1        0.0223
     21 C         142.7303  143.3590  160.6677 C.3     1  UNL1        0.0047
     22 C         137.8553  143.2063  163.2253 C.3     1  UNL1        0.2320
     23 O         137.0479  141.9510  163.0763 O.3     1  UNL1       -0.4710
     24 C         137.7009  140.6930  162.5854 C.ar    1  UNL1        0.1354
     25 C         137.9062  140.4791  161.1150 C.ar    1  UNL1        0.0366
     26 C         138.5592  139.2210  160.6241 C.ar    1  UNL1        0.0031
     27 C         139.0070  138.1770  161.6036 C.ar    1  UNL1       -0.0001
     28 C         138.8017  138.3909  163.0740 C.ar    1  UNL1       -0.0009
     29 C         138.1487  139.6489  163.5649 C.ar    1  UNL1        0.0174
     30 C         137.9434  139.8628  165.0353 C.3     1  UNL1        0.0710
     31 C         138.8212  139.1568  166.0257 C.2     1  UNL1        0.0548
     32 O         138.2633  138.7280  167.3504 O.co2   1  UNL1       -0.5488
     33 O         140.2570  138.8795  165.6914 O.co2   1  UNL1       -0.5488
@<TRIPOS>UNITY_ATOM_ATTR
32 1
charge -1
@<TRIPOS>BOND
     1    19    20    1
     2    20    21    1
     3    20     1    1
     4     1     2   ar
     5     2     3   ar
     6     3    22    1
     7    22    23    1
     8    23    24    1
     9    24    25   ar
    10    25    26   ar
    11    26    27   ar
    12    27    28   ar
    13    28    29   ar
    14    29    30    1
    15    30    31    1
    16    31    32   ar
    17    31    33   ar
    18     3     4   ar
    19     4     5   ar
    20     5     7    1
    21     7     8   ar
    22     8     9   ar
    23     9    10   ar
    24    10    11   ar
    25    11    12   ar
    26    11    13    1
    27    13    14    1
    28    13    15    1
    29    15    16    1
    30     5     6   ar
    31     6     1   ar
    32    29    24   ar
    33    12     7   ar
    34    16    10    1
    35    14    17    1
    36    14    18    1
@<TRIPOS>MOLECULE
*****
 33 36 0 0 0
SMALL
GASTEIGER

@<TRIPOS>ATOM
      1 C         139.0494  140.9800  163.8725 C.ar    1  UNL1       -0.0227
      2 C         138.9046  142.2695  163.1201 C.ar    1  UNL1       -0.0050
      3 C         139.2461  143.5692  163.7866 C.ar    1  UNL1        0.0208
      4 C         139.7325  143.5792  165.2056 C.ar    1  UNL1       -0.0007
      5 C         139.8772  142.2897  165.9580 C.ar    1  UNL1       -0.0005
      6 C         139.5357  140.9901  165.2914 C.ar    1  UNL1       -0.0043
      7 C         140.3636  142.2998  167.3770 C.ar    1  UNL1       -0.0001
      8 C         140.0992  143.4890  168.2520 C.ar    1  UNL1        0.0031
      9 C         140.5855  143.4991  169.6709 C.ar    1  UNL1        0.0366
     10 C         141.3362  142.3198  170.2148 C.ar    1  UNL1        0.1360
     11 C         141.6005  141.1305  169.3398 C.ar    1  UNL1        0.0294
     12 C         141.1142  141.1205  167.9209 C.ar    1  UNL1        0.0001
     13 C         142.3614  140.1210  170.1472 C.3     1  UNL1        0.1208
     14 N         142.8335  138.7813  169.6652 N.3     1  UNL1       -0.3157
     15 C         142.5674  140.6864  171.5212 C.3     1  UNL1        0.2253
     16 O         141.9337  142.0453  171.5631 O.3     1  UNL1       -0.4739
     17 H         142.5574  138.6537  168.6916 H       1  UNL1        0.1192
     18 H         142.4145  138.0475  170.2364 H       1  UNL1        0.1192
     19 C         139.0195  138.3821  163.8898 C.3     1  UNL1        0.0047
     20 C         138.7079  139.6803  163.2060 C.3     1  UNL1        0.0223
     21 C         138.0547  139.6789  161.8557 C.3     1  UNL1        0.0047
     22 C         139.1014  144.8587  163.0343 C.3     1  UNL1        0.2320
     23 O         140.3205  145.6422  162.6473 O.3     1  UNL1       -0.4710
     24 C         141.6762  145.0042  162.7193 C.ar    1  UNL1        0.1354
     25 C         142.5379  145.2084  163.9299 C.ar    1  UNL1        0.0366
     26 C         143.8935  144.5704  164.0019 C.ar    1  UNL1        0.0031
     27 C         144.3874  143.7282  162.8632 C.ar    1  UNL1       -0.0001
     28 C         143.5257  143.5239  161.6525 C.ar    1  UNL1       -0.0009
     29 C         142.1701  144.1619  161.5805 C.ar    1  UNL1        0.0174
     30 C         141.3084  143.9577  160.3698 C.3     1  UNL1        0.0710
     31 C         141.1317  145.0697  159.3788 C.2     1  UNL1        0.0548
     32 O         142.2829  145.4963  158.5171 O.co2   1  UNL1       -0.5488
     33 O         139.8038  145.7552  159.2495 O.co2   1  UNL1       -0.5488
@<TRIPOS>UNITY_ATOM_ATTR
32 1
charge -1
@<TRIPOS>BOND
     1    19    20    1
     2    20    21    1
     3    20     1    1
     4     1     2   ar
     5     2     3   ar
     6     3    22    1
     7    22    23    1
     8    23    24    1
     9    24    25   ar
    10    25    26   ar
    11    26    27   ar
    12    27    28   ar
    13    28    29   ar
    14    29    30    1
    15    30    31    1
    16    31    32   ar
    17    31    33   ar
    18     3     4   ar
    19     4     5   ar
    20     5     7    1
    21     7     8   ar
    22     8     9   ar
    23     9    10   ar
    24    10    11   ar
    25    11    12   ar
    26    11    13    1
    27    13    14    1
    28    13    15    1
    29    15    16    1
    30     5     6   ar
    31     6     1   ar
    32    29    24   ar
    33    12     7   ar
    34    16    10    1
    35    14    17    1
    36    14    18    1
