@<TRIPOS>MOLECULE
*****
 37 40 0 0 0
SMALL
GASTEIGER

@<TRIPOS>ATOM
      1 C         138.2003  142.6578  162.2681 C.3     1  UNL1        0.2478
      2 C         138.4700  141.1929  162.4459 C.3     1  UNL1        0.1428
      3 N         138.2931  140.8618  163.8981 N.am    1  UNL1       -0.2700
      4 C         138.4650  139.5083  164.5211 C.2     1  UNL1        0.2303
      5 O         138.8484  138.3341  163.6700 O.2     1  UNL1       -0.2745
      6 C         137.9141  142.1221  164.6181 C.3     1  UNL1        0.1640
      7 C         137.8568  143.2321  163.6106 C.3     1  UNL1        0.3192
      8 F         137.4851  144.0752  164.7942 F       1  UNL1       -0.1985
      9 F         137.7218  144.5182  162.8507 F       1  UNL1       -0.1985
     10 O         138.2632  143.4153  160.9750 O.3     1  UNL1       -0.4689
     11 C         141.5924  142.7016  158.9362 C.ar    1  UNL1        0.0415
     12 C         142.2225  144.0628  158.9368 C.ar    1  UNL1        0.1020
     13 N         141.5328  145.2082  159.6168 N.ar    1  UNL1       -0.2264
     14 C         140.2131  144.9923  160.2962 C.ar    1  UNL1        0.1597
     15 N         139.5234  146.1378  160.9763 N.pl3   1  UNL1       -0.3402
     16 C         139.5830  143.6311  160.2956 C.ar    1  UNL1        0.1697
     17 C         140.2726  142.4858  159.6156 C.ar    1  UNL1        0.0429
     18 H         139.9370  147.0312  160.9767 H       1  UNL1        0.1438
     19 H         138.6572  145.9961  161.4222 H       1  UNL1        0.1438
     20 C         142.7486  137.8491  157.2049 C.3     1  UNL1        0.1321
     21 N         142.8135  139.3258  157.4604 N.ar    1  UNL1       -0.3059
     22 C         143.8733  140.2615  156.9590 C.ar    1  UNL1        0.1786
     23 N         143.5448  141.6400  157.4508 N.ar    1  UNL1       -0.2238
     24 C         142.2821  141.5562  158.2561 C.ar    1  UNL1        0.1018
     25 C         141.8301  140.1259  158.2621 C.ar    1  UNL1        0.0965
     26 C         138.2535  139.3288  165.9952 C.3     1  UNL1        0.1116
     27 C         139.3499  139.6761  166.9582 C.ar    1  UNL1       -0.0129
     28 C         140.7663  139.7817  166.4758 C.ar    1  UNL1       -0.0007
     29 C         141.8627  140.1290  167.4388 C.ar    1  UNL1        0.0369
     30 C         141.5427  140.3708  168.8841 C.ar    1  UNL1        0.1468
     31 C         140.1262  140.2652  169.3666 C.ar    1  UNL1        0.0369
     32 C         139.0298  139.9179  168.4036 C.ar    1  UNL1       -0.0007
     33 O         142.6390  140.7181  169.8471 O.3     1  UNL1       -0.4045
     34 C         142.8707  142.1482  170.2357 C.3     1  UNL1        0.5753
     35 F         143.1024  143.5784  170.6243 F       1  UNL1       -0.1328
     36 F         141.9966  141.9625  171.4405 F       1  UNL1       -0.1328
     37 F         143.7448  142.3340  169.0309 F       1  UNL1       -0.1328
@<TRIPOS>BOND
     1    20    21    1
     2    21    22   ar
     3    22    23   ar
     4    23    24   ar
     5    24    11    1
     6    11    12   ar
     7    12    13   ar
     8    13    14   ar
     9    14    15    1
    10    14    16   ar
    11    16    10    1
    12     1    10    1
    13     1     2    1
    14     2     3    1
    15     3     4   am
    16     4     5    2
    17     4    26    1
    18    26    27    1
    19    27    28   ar
    20    28    29   ar
    21    29    30   ar
    22    30    33    1
    23    33    34    1
    24    34    35    1
    25    34    36    1
    26    34    37    1
    27    30    31   ar
    28    31    32   ar
    29     3     6    1
    30     6     7    1
    31     7     8    1
    32     7     9    1
    33    16    17   ar
    34    24    25   ar
    35    25    21   ar
    36    17    11   ar
    37     7     1    1
    38    32    27   ar
    39    15    18    1
    40    15    19    1
@<TRIPOS>MOLECULE
*****
 37 40 0 0 0
SMALL
GASTEIGER

@<TRIPOS>ATOM
      1 C         138.2193  142.6411  162.1975 C.3     1  UNL1        0.2478
      2 C         138.5009  141.1795  162.3839 C.3     1  UNL1        0.1428
      3 N         138.3164  140.8535  163.8364 N.am    1  UNL1       -0.2700
      4 C         138.4959  139.5044  164.4668 C.2     1  UNL1        0.2303
      5 O         138.8962  138.3299  163.6239 O.2     1  UNL1       -0.2745
      6 C         137.9207  142.1135  164.5477 C.3     1  UNL1        0.1640
      7 C         137.8608  143.2183  163.5348 C.3     1  UNL1        0.3192
      8 F         137.4727  144.0634  164.7118 F       1  UNL1       -0.1985
      9 F         137.7197  144.4998  162.7680 F       1  UNL1       -0.1985
     10 O         138.2848  143.3933  160.9014 O.3     1  UNL1       -0.4689
     11 C         141.6186  142.7053  158.8613 C.ar    1  UNL1        0.0415
     12 C         142.2526  144.0645  158.8874 C.ar    1  UNL1        0.1020
     13 N         141.5640  145.1999  159.5849 N.ar    1  UNL1       -0.2264
     14 C         140.2414  144.9762  160.2563 C.ar    1  UNL1        0.1597
     15 N         139.5528  146.1117  160.9538 N.pl3   1  UNL1       -0.3402
     16 C         139.6074  143.6170  160.2301 C.ar    1  UNL1        0.1697
     17 C         140.2960  142.4816  159.5326 C.ar    1  UNL1        0.0429
     18 H         139.9689  147.0038  160.9710 H       1  UNL1        0.1438
     19 H         138.6847  145.9649  161.3944 H       1  UNL1        0.1438
     20 C         144.9097  139.9640  155.7733 C.3     1  UNL1        0.1321
     21 N         143.8199  140.3098  156.7444 N.ar    1  UNL1       -0.3059
     22 C         142.9138  139.3351  157.4364 C.ar    1  UNL1        0.1786
     23 N         141.9789  140.1139  158.3136 N.ar    1  UNL1       -0.2238
     24 C         142.3073  141.5698  158.1637 C.ar    1  UNL1        0.1018
     25 C         143.4451  141.6909  157.1939 C.ar    1  UNL1        0.0965
     26 C         138.2752  139.3296  165.9401 C.3     1  UNL1        0.1116
     27 C         139.3693  139.6702  166.9081 C.ar    1  UNL1       -0.0129
     28 C         140.7886  139.7661  166.4325 C.ar    1  UNL1       -0.0007
     29 C         141.8826  140.1067  167.4006 C.ar    1  UNL1        0.0369
     30 C         141.5573  140.3515  168.8443 C.ar    1  UNL1        0.1468
     31 C         140.1378  140.2557  169.3199 C.ar    1  UNL1        0.0369
     32 C         139.0438  139.9151  168.3519 C.ar    1  UNL1       -0.0007
     33 O         142.6512  140.6921  169.8123 O.3     1  UNL1       -0.4045
     34 C         142.8786  142.1190  170.2154 C.3     1  UNL1        0.5753
     35 F         143.1060  143.5458  170.6184 F       1  UNL1       -0.1328
     36 F         143.7549  142.3186  169.0144 F       1  UNL1       -0.1328
     37 F         142.0023  141.9193  171.4163 F       1  UNL1       -0.1328
@<TRIPOS>BOND
     1    20    21    1
     2    21    22   ar
     3    22    23   ar
     4    23    24   ar
     5    24    11    1
     6    11    12   ar
     7    12    13   ar
     8    13    14   ar
     9    14    15    1
    10    14    16   ar
    11    16    10    1
    12     1    10    1
    13     1     2    1
    14     2     3    1
    15     3     4   am
    16     4     5    2
    17     4    26    1
    18    26    27    1
    19    27    28   ar
    20    28    29   ar
    21    29    30   ar
    22    30    33    1
    23    33    34    1
    24    34    35    1
    25    34    36    1
    26    34    37    1
    27    30    31   ar
    28    31    32   ar
    29     3     6    1
    30     6     7    1
    31     7     8    1
    32     7     9    1
    33    16    17   ar
    34    24    25   ar
    35    25    21   ar
    36    17    11   ar
    37     7     1    1
    38    32    27   ar
    39    15    18    1
    40    15    19    1
@<TRIPOS>MOLECULE
*****
 37 40 0 0 0
SMALL
GASTEIGER

@<TRIPOS>ATOM
      1 C         140.7642  138.1321  162.4323 C.3     1  UNL1        0.2478
      2 C         142.1255  138.6019  162.8519 C.3     1  UNL1        0.1428
      3 N         142.2869  138.3085  164.3141 N.am    1  UNL1       -0.2700
      4 C         143.4972  138.6128  165.1460 C.2     1  UNL1        0.2303
      5 O         144.6913  139.2705  164.5204 O.2     1  UNL1       -0.2745
      6 C         141.0252  137.6573  164.7982 C.3     1  UNL1        0.1640
      7 C         140.0841  137.5483  163.6351 C.3     1  UNL1        0.3192
      8 F         139.1673  136.9139  164.6386 F       1  UNL1       -0.1985
      9 F         138.9514  137.3066  162.6819 F       1  UNL1       -0.1985
     10 O         140.1846  138.2290  161.0522 O.3     1  UNL1       -0.4689
     11 C         139.1258  142.0520  160.9354 C.ar    1  UNL1        0.0415
     12 C         138.7335  142.1937  159.4946 C.ar    1  UNL1        0.1020
     13 N         138.8248  141.0137  158.5730 N.ar    1  UNL1       -0.2264
     14 C         139.3085  139.6922  159.0922 C.ar    1  UNL1        0.1597
     15 N         139.3999  138.5123  158.1705 N.pl3   1  UNL1       -0.3402
     16 C         139.7009  139.5506  160.5330 C.ar    1  UNL1        0.1697
     17 C         139.6096  140.7305  161.4546 C.ar    1  UNL1        0.0429
     18 H         139.1424  138.6052  157.2248 H       1  UNL1        0.1438
     19 H         139.7174  137.6449  158.5112 H       1  UNL1        0.1438
     20 C         138.7065  144.9948  165.2995 C.3     1  UNL1        0.1321
     21 N         138.8418  144.5846  163.8630 N.ar    1  UNL1       -0.3059
     22 C         138.9461  145.5108  162.6877 C.ar    1  UNL1        0.1786
     23 N         139.0652  144.6748  161.4480 N.ar    1  UNL1       -0.2238
     24 C         139.0345  143.2320  161.8571 C.ar    1  UNL1        0.1018
     25 C         138.8964  143.1763  163.3497 C.ar    1  UNL1        0.0965
     26 C         143.5136  138.2594  166.6037 C.3     1  UNL1        0.1116
     27 C         142.8371  139.1536  167.6000 C.ar    1  UNL1       -0.0129
     28 C         142.0630  140.3496  167.1303 C.ar    1  UNL1       -0.0007
     29 C         141.3865  141.2438  168.1267 C.ar    1  UNL1        0.0369
     30 C         141.4841  140.9421  169.5928 C.ar    1  UNL1        0.1468
     31 C         142.2581  139.7461  170.0626 C.ar    1  UNL1        0.0369
     32 C         142.9346  138.8519  169.0662 C.ar    1  UNL1       -0.0007
     33 O         140.8076  141.8362  170.5891 O.3     1  UNL1       -0.4045
     34 C         140.6616  143.3016  170.3039 C.3     1  UNL1        0.5753
     35 F         140.5155  144.7670  170.0188 F       1  UNL1       -0.1328
     36 F         139.2019  143.2215  170.6400 F       1  UNL1       -0.1328
     37 F         142.1212  143.3817  169.9679 F       1  UNL1       -0.1328
@<TRIPOS>BOND
     1    20    21    1
     2    21    22   ar
     3    22    23   ar
     4    23    24   ar
     5    24    11    1
     6    11    12   ar
     7    12    13   ar
     8    13    14   ar
     9    14    15    1
    10    14    16   ar
    11    16    10    1
    12     1    10    1
    13     1     2    1
    14     2     3    1
    15     3     4   am
    16     4     5    2
    17     4    26    1
    18    26    27    1
    19    27    28   ar
    20    28    29   ar
    21    29    30   ar
    22    30    33    1
    23    33    34    1
    24    34    35    1
    25    34    36    1
    26    34    37    1
    27    30    31   ar
    28    31    32   ar
    29     3     6    1
    30     6     7    1
    31     7     8    1
    32     7     9    1
    33    16    17   ar
    34    24    25   ar
    35    25    21   ar
    36    17    11   ar
    37     7     1    1
    38    32    27   ar
    39    15    18    1
    40    15    19    1
@<TRIPOS>MOLECULE
*****
 37 40 0 0 0
SMALL
GASTEIGER

@<TRIPOS>ATOM
      1 C         141.9061  138.6639  159.9450 C.3     1  UNL1        0.2478
      2 C         140.4567  138.6258  160.3296 C.3     1  UNL1        0.1428
      3 N         140.3592  138.0555  161.7136 N.am    1  UNL1       -0.2700
      4 C         139.0946  137.8378  162.4903 C.2     1  UNL1        0.2303
      5 O         137.7711  138.2024  161.8861 O.2     1  UNL1       -0.2745
      6 C         141.7483  137.7411  162.1843 C.3     1  UNL1        0.1640
      7 C         142.7043  138.1172  161.0913 C.3     1  UNL1        0.3192
      8 F         143.7481  137.6276  162.0510 F       1  UNL1       -0.1985
      9 F         143.8786  138.3908  160.1989 F       1  UNL1       -0.1985
     10 O         142.4599  139.1614  158.6428 O.3     1  UNL1       -0.4689
     11 C         142.5806  135.9402  156.3278 C.ar    1  UNL1        0.0415
     12 C         142.3013  136.5460  154.9843 C.ar    1  UNL1        0.1020
     13 N         142.0749  138.0236  154.8604 N.ar    1  UNL1       -0.2264
     14 C         142.1278  138.8954  156.0799 C.ar    1  UNL1        0.1597
     15 N         141.9013  140.3731  155.9558 N.pl3   1  UNL1       -0.3402
     16 C         142.4071  138.2896  157.4233 C.ar    1  UNL1        0.1697
     17 C         142.6335  136.8120  157.5473 C.ar    1  UNL1        0.0429
     18 H         141.7180  140.7707  155.0740 H       1  UNL1        0.1438
     19 H         141.9360  140.9453  156.7562 H       1  UNL1        0.1438
     20 C         144.6252  131.2714  157.7072 C.3     1  UNL1        0.1321
     21 N         143.7468  132.3166  157.0859 N.ar    1  UNL1       -0.3059
     22 C         142.5640  132.0609  156.1994 C.ar    1  UNL1        0.1786
     23 N         141.9833  133.3872  155.8076 N.ar    1  UNL1       -0.2238
     24 C         142.8070  134.4626  156.4518 C.ar    1  UNL1        0.1018
     25 C         143.8970  133.8008  157.2418 C.ar    1  UNL1        0.0965
     26 C         139.1536  137.2554  163.8714 C.3     1  UNL1        0.1116
     27 C         139.3051  138.1577  165.0601 C.ar    1  UNL1       -0.0129
     28 C         138.1645  138.3339  166.0183 C.ar    1  UNL1       -0.0007
     29 C         138.3161  139.2362  167.2069 C.ar    1  UNL1        0.0369
     30 C         139.6082  139.9623  167.4374 C.ar    1  UNL1        0.1468
     31 C         140.7489  139.7862  166.4792 C.ar    1  UNL1        0.0369
     32 C         140.5973  138.8839  165.2905 C.ar    1  UNL1       -0.0007
     33 O         139.7598  140.8646  168.6260 O.3     1  UNL1       -0.4045
     34 C         139.7843  140.2850  170.0093 C.3     1  UNL1        0.5753
     35 F         139.8088  139.7054  171.3926 F       1  UNL1       -0.1328
     36 F         141.2525  140.0120  169.8689 F       1  UNL1       -0.1328
     37 F         138.3160  140.5580  170.1496 F       1  UNL1       -0.1328
@<TRIPOS>BOND
     1    20    21    1
     2    21    22   ar
     3    22    23   ar
     4    23    24   ar
     5    24    11    1
     6    11    12   ar
     7    12    13   ar
     8    13    14   ar
     9    14    15    1
    10    14    16   ar
    11    16    10    1
    12     1    10    1
    13     1     2    1
    14     2     3    1
    15     3     4   am
    16     4     5    2
    17     4    26    1
    18    26    27    1
    19    27    28   ar
    20    28    29   ar
    21    29    30   ar
    22    30    33    1
    23    33    34    1
    24    34    35    1
    25    34    36    1
    26    34    37    1
    27    30    31   ar
    28    31    32   ar
    29     3     6    1
    30     6     7    1
    31     7     8    1
    32     7     9    1
    33    16    17   ar
    34    24    25   ar
    35    25    21   ar
    36    17    11   ar
    37     7     1    1
    38    32    27   ar
    39    15    18    1
    40    15    19    1
@<TRIPOS>MOLECULE
*****
 37 40 0 0 0
SMALL
GASTEIGER

@<TRIPOS>ATOM
      1 C         140.0985  139.1303  158.8077 C.3     1  UNL1        0.2478
      2 C         140.7449  138.3888  159.9402 C.3     1  UNL1        0.1428
      3 N         139.7859  138.3766  161.0936 N.am    1  UNL1       -0.2700
      4 C         140.0242  137.7419  162.4315 C.2     1  UNL1        0.2303
      5 O         141.3197  137.0382  162.7078 O.2     1  UNL1       -0.2745
      6 C         138.5468  139.1106  160.6740 C.3     1  UNL1        0.1640
      7 C         138.7400  139.5764  159.2612 C.3     1  UNL1        0.3192
      8 F         137.3617  140.1447  159.4266 F       1  UNL1       -0.1985
      9 F         138.6451  140.1610  157.8831 F       1  UNL1       -0.1985
     10 O         140.7042  139.3816  157.4587 O.3     1  UNL1       -0.4689
     11 C         142.6354  136.1223  156.2767 C.ar    1  UNL1        0.0415
     12 C         143.9752  136.6982  155.9257 C.ar    1  UNL1        0.1020
     13 N         144.2246  138.1686  156.0857 N.ar    1  UNL1       -0.2264
     14 C         143.1343  139.0631  156.5967 C.ar    1  UNL1        0.1597
     15 N         143.3838  140.5335  156.7567 N.pl3   1  UNL1       -0.3402
     16 C         141.7945  138.4871  156.9477 C.ar    1  UNL1        0.1697
     17 C         141.5451  137.0167  156.7877 C.ar    1  UNL1        0.0429
     18 H         144.2632  140.9115  156.5263 H       1  UNL1        0.1438
     19 H         142.6682  141.1206  157.0921 H       1  UNL1        0.1438
     20 C         140.6426  131.5161  154.6356 C.3     1  UNL1        0.1321
     21 N         141.4699  132.5346  155.3624 N.ar    1  UNL1       -0.3059
     22 C         142.5340  132.2435  156.3787 C.ar    1  UNL1        0.1786
     23 N         143.1001  133.5520  156.8449 N.ar    1  UNL1       -0.2238
     24 C         142.3859  134.6518  156.1167 C.ar    1  UNL1        0.1018
     25 C         141.3783  134.0230  155.2005 C.ar    1  UNL1        0.0965
     26 C         138.9669  137.8108  163.4933 C.3     1  UNL1        0.1116
     27 C         139.2171  138.5878  164.7518 C.ar    1  UNL1       -0.0129
     28 C         140.4152  139.4845  164.8540 C.ar    1  UNL1       -0.0007
     29 C         140.6654  140.2614  166.1125 C.ar    1  UNL1        0.0369
     30 C         139.7175  140.1416  167.2688 C.ar    1  UNL1        0.1468
     31 C         138.5193  139.2449  167.1666 C.ar    1  UNL1        0.0369
     32 C         138.2691  138.4680  165.9081 C.ar    1  UNL1       -0.0007
     33 O         139.9677  140.9185  168.5272 O.3     1  UNL1       -0.4045
     34 C         139.8533  140.2424  169.8613 C.3     1  UNL1        0.5753
     35 F         139.7389  139.5662  171.1954 F       1  UNL1       -0.1328
     36 F         138.5421  140.9314  170.0981 F       1  UNL1       -0.1328
     37 F         141.1645  139.5534  169.6245 F       1  UNL1       -0.1328
@<TRIPOS>BOND
     1    20    21    1
     2    21    22   ar
     3    22    23   ar
     4    23    24   ar
     5    24    11    1
     6    11    12   ar
     7    12    13   ar
     8    13    14   ar
     9    14    15    1
    10    14    16   ar
    11    16    10    1
    12     1    10    1
    13     1     2    1
    14     2     3    1
    15     3     4   am
    16     4     5    2
    17     4    26    1
    18    26    27    1
    19    27    28   ar
    20    28    29   ar
    21    29    30   ar
    22    30    33    1
    23    33    34    1
    24    34    35    1
    25    34    36    1
    26    34    37    1
    27    30    31   ar
    28    31    32   ar
    29     3     6    1
    30     6     7    1
    31     7     8    1
    32     7     9    1
    33    16    17   ar
    34    24    25   ar
    35    25    21   ar
    36    17    11   ar
    37     7     1    1
    38    32    27   ar
    39    15    18    1
    40    15    19    1
@<TRIPOS>MOLECULE
*****
 37 40 0 0 0
SMALL
GASTEIGER

@<TRIPOS>ATOM
      1 C         141.6906  139.0976  160.3180 C.3     1  UNL1        0.2478
      2 C         142.8083  139.3744  161.2795 C.3     1  UNL1        0.1428
      3 N         142.4282  138.7971  162.6108 N.am    1  UNL1       -0.2700
      4 C         143.2554  138.8450  163.8611 C.2     1  UNL1        0.2303
      5 O         144.5963  139.5170  163.8479 O.2     1  UNL1       -0.2745
      6 C         141.0756  138.1635  162.4721 C.3     1  UNL1        0.1640
      7 C         140.6198  138.3492  161.0551 C.3     1  UNL1        0.3192
      8 F         139.4004  137.6073  161.5161 F       1  UNL1       -0.1985
      9 F         139.9091  138.3799  159.7345 F       1  UNL1       -0.1985
     10 O         141.6508  139.4988  158.8732 O.3     1  UNL1       -0.4689
     11 C         143.0025  136.4745  156.6876 C.ar    1  UNL1        0.0415
     12 C         144.0117  137.1754  155.8271 C.ar    1  UNL1        0.1020
     13 N         144.2338  138.6507  155.9821 N.ar    1  UNL1       -0.2264
     14 C         143.4469  139.4252  156.9974 C.ar    1  UNL1        0.1597
     15 N         143.6691  140.9006  157.1523 N.pl3   1  UNL1       -0.3402
     16 C         142.4378  138.7243  157.8579 C.ar    1  UNL1        0.1697
     17 C         142.2156  137.2490  157.7030 C.ar    1  UNL1        0.0429
     18 H         144.3314  141.3606  156.5875 H       1  UNL1        0.1438
     19 H         143.1526  141.4089  157.8187 H       1  UNL1        0.1438
     20 C         141.1643  131.8234  154.9936 C.3     1  UNL1        0.1321
     21 N         141.9354  132.8613  155.7541 N.ar    1  UNL1       -0.3059
     22 C         142.9414  132.5963  156.8348 C.ar    1  UNL1        0.1786
     23 N         143.4636  133.9176  157.3160 N.ar    1  UNL1       -0.2238
     24 C         142.7803  134.9992  156.5327 C.ar    1  UNL1        0.1018
     25 C         141.8359  134.3463  155.5675 C.ar    1  UNL1        0.0965
     26 C         142.7417  138.2208  165.1246 C.3     1  UNL1        0.1116
     27 C         142.0497  139.0671  166.1518 C.ar    1  UNL1       -0.0129
     28 C         142.7189  139.3513  167.4638 C.ar    1  UNL1       -0.0007
     29 C         142.0268  140.1975  168.4909 C.ar    1  UNL1        0.0369
     30 C         140.6656  140.7596  168.2060 C.ar    1  UNL1        0.1468
     31 C         139.9964  140.4754  166.8939 C.ar    1  UNL1        0.0369
     32 C         140.6884  139.6292  165.8668 C.ar    1  UNL1       -0.0007
     33 O         139.9736  141.6058  169.2331 O.3     1  UNL1       -0.4045
     34 C         140.5540  142.9317  169.6270 C.3     1  UNL1        0.5753
     35 F         141.1343  144.2576  170.0209 F       1  UNL1       -0.1328
     36 F         140.9990  142.3482  170.9352 F       1  UNL1       -0.1328
     37 F         140.1089  143.5152  168.3187 F       1  UNL1       -0.1328
@<TRIPOS>BOND
     1    20    21    1
     2    21    22   ar
     3    22    23   ar
     4    23    24   ar
     5    24    11    1
     6    11    12   ar
     7    12    13   ar
     8    13    14   ar
     9    14    15    1
    10    14    16   ar
    11    16    10    1
    12     1    10    1
    13     1     2    1
    14     2     3    1
    15     3     4   am
    16     4     5    2
    17     4    26    1
    18    26    27    1
    19    27    28   ar
    20    28    29   ar
    21    29    30   ar
    22    30    33    1
    23    33    34    1
    24    34    35    1
    25    34    36    1
    26    34    37    1
    27    30    31   ar
    28    31    32   ar
    29     3     6    1
    30     6     7    1
    31     7     8    1
    32     7     9    1
    33    16    17   ar
    34    24    25   ar
    35    25    21   ar
    36    17    11   ar
    37     7     1    1
    38    32    27   ar
    39    15    18    1
    40    15    19    1
@<TRIPOS>MOLECULE
*****
 37 40 0 0 0
SMALL
GASTEIGER

@<TRIPOS>ATOM
      1 C         138.5150  143.1371  162.4503 C.3     1  UNL1        0.2478
      2 C         138.5546  141.6390  162.3835 C.3     1  UNL1        0.1428
      3 N         138.4497  141.1096  163.7830 N.am    1  UNL1       -0.2700
      4 C         138.4493  139.6634  164.1808 C.2     1  UNL1        0.2303
      5 O         138.5613  138.5970  163.1319 O.2     1  UNL1       -0.2745
      6 C         138.3452  142.2804  164.7149 C.3     1  UNL1        0.1640
      7 C         138.3855  143.5335  163.8912 C.3     1  UNL1        0.3192
      8 F         138.2589  144.2219  165.2179 F       1  UNL1       -0.1985
      9 F         138.3994  144.9304  163.3450 F       1  UNL1       -0.1985
     10 O         138.5913  144.0741  161.2816 O.3     1  UNL1       -0.4689
     11 C         140.8443  143.0815  158.1689 C.ar    1  UNL1        0.0415
     12 C         142.0885  143.8680  158.4572 C.ar    1  UNL1        0.1020
     13 N         142.1670  144.7233  159.6869 N.ar    1  UNL1       -0.2264
     14 C         141.0013  144.7920  160.6284 C.ar    1  UNL1        0.1597
     15 N         141.0798  145.6473  161.8582 N.pl3   1  UNL1       -0.3402
     16 C         139.7571  144.0054  160.3401 C.ar    1  UNL1        0.1697
     17 C         139.6786  143.1502  159.1104 C.ar    1  UNL1        0.0429
     18 H         141.8965  146.1636  162.0474 H       1  UNL1        0.1438
     19 H         140.3147  145.6924  162.4761 H       1  UNL1        0.1438
     20 C         139.0855  140.7939  153.7468 C.3     1  UNL1        0.1321
     21 N         139.9573  141.1747  154.9066 N.ar    1  UNL1       -0.3059
     22 C         141.3326  140.6452  155.1869 C.ar    1  UNL1        0.1786
     23 N         141.8322  141.2951  156.4431 N.ar    1  UNL1       -0.2238
     24 C         140.7658  142.2261  156.9391 C.ar    1  UNL1        0.1018
     25 C         139.6071  142.1517  155.9895 C.ar    1  UNL1        0.0965
     26 C         138.3370  139.2835  165.6275 C.3     1  UNL1        0.1116
     27 C         139.4916  139.5170  166.5562 C.ar    1  UNL1       -0.0129
     28 C         139.2398  139.8777  167.9902 C.ar    1  UNL1       -0.0007
     29 C         140.3945  140.1112  168.9188 C.ar    1  UNL1        0.0369
     30 C         141.8010  139.9840  168.4134 C.ar    1  UNL1        0.1468
     31 C         142.0529  139.6233  166.9793 C.ar    1  UNL1        0.0369
     32 C         140.8982  139.3899  166.0507 C.ar    1  UNL1       -0.0007
     33 O         142.9556  140.2175  169.3419 O.3     1  UNL1       -0.4045
     34 C         143.1182  141.5471  170.0169 C.3     1  UNL1        0.5753
     35 F         143.2808  142.8768  170.6919 F       1  UNL1       -0.1328
     36 F         142.5077  140.9870  171.2673 F       1  UNL1       -0.1328
     37 F         143.7287  142.1072  168.7665 F       1  UNL1       -0.1328
@<TRIPOS>BOND
     1    20    21    1
     2    21    22   ar
     3    22    23   ar
     4    23    24   ar
     5    24    11    1
     6    11    12   ar
     7    12    13   ar
     8    13    14   ar
     9    14    15    1
    10    14    16   ar
    11    16    10    1
    12     1    10    1
    13     1     2    1
    14     2     3    1
    15     3     4   am
    16     4     5    2
    17     4    26    1
    18    26    27    1
    19    27    28   ar
    20    28    29   ar
    21    29    30   ar
    22    30    33    1
    23    33    34    1
    24    34    35    1
    25    34    36    1
    26    34    37    1
    27    30    31   ar
    28    31    32   ar
    29     3     6    1
    30     6     7    1
    31     7     8    1
    32     7     9    1
    33    16    17   ar
    34    24    25   ar
    35    25    21   ar
    36    17    11   ar
    37     7     1    1
    38    32    27   ar
    39    15    18    1
    40    15    19    1
@<TRIPOS>MOLECULE
*****
 37 40 0 0 0
SMALL
GASTEIGER

@<TRIPOS>ATOM
      1 C         141.9263  138.6210  159.8368 C.3     1  UNL1        0.2478
      2 C         140.7228  138.2533  160.6532 C.3     1  UNL1        0.1428
      3 N         141.1753  138.0101  162.0625 N.am    1  UNL1       -0.2700
      4 C         140.2987  137.6183  163.2148 C.2     1  UNL1        0.2303
      5 O         138.8243  137.4363  163.0075 O.2     1  UNL1       -0.2745
      6 C         142.6585  138.2274  162.1171 C.3     1  UNL1        0.1640
      7 C         143.1226  138.6050  160.7415 C.3     1  UNL1        0.3192
      8 F         144.4751  138.6708  161.3868 F       1  UNL1       -0.1985
      9 F         143.8694  138.9963  159.5008 F       1  UNL1       -0.1985
     10 O         141.9323  138.9473  158.3727 O.3     1  UNL1       -0.4689
     11 C         142.5759  135.4845  156.5439 C.ar    1  UNL1        0.0415
     12 C         141.7095  135.6400  155.3293 C.ar    1  UNL1        0.1020
     13 N         140.9174  136.8980  155.1292 N.ar    1  UNL1       -0.2264
     14 C         140.9917  138.0004  156.1437 C.ar    1  UNL1        0.1597
     15 N         140.1995  139.2584  155.9436 N.pl3   1  UNL1       -0.3402
     16 C         141.8580  137.8449  157.3583 C.ar    1  UNL1        0.1697
     17 C         142.6501  136.5869  157.5584 C.ar    1  UNL1        0.0429
     18 H         139.6309  139.3605  155.1464 H       1  UNL1        0.1438
     19 H         140.2482  139.9820  156.6094 H       1  UNL1        0.1438
     20 C         144.8914  130.8176  155.6837 C.3     1  UNL1        0.1321
     21 N         144.4324  132.0814  156.3486 N.ar    1  UNL1       -0.3059
     22 C         144.7417  132.5000  157.7555 C.ar    1  UNL1        0.1786
     23 N         144.0838  133.8257  157.9998 N.ar    1  UNL1       -0.2238
     24 C         143.3680  134.2265  156.7440 C.ar    1  UNL1        0.1018
     25 C         143.5834  133.1484  155.7236 C.ar    1  UNL1        0.0965
     26 C         140.8964  137.4086  164.5745 C.3     1  UNL1        0.1116
     27 C         141.0565  138.5696  165.5107 C.ar    1  UNL1       -0.0129
     28 C         139.8530  139.3480  165.9530 C.ar    1  UNL1       -0.0007
     29 C         140.0132  140.5090  166.8892 C.ar    1  UNL1        0.0369
     30 C         141.3769  140.8915  167.3831 C.ar    1  UNL1        0.1468
     31 C         142.5805  140.1131  166.9409 C.ar    1  UNL1        0.0369
     32 C         142.4203  138.9521  166.0046 C.ar    1  UNL1       -0.0007
     33 O         141.5371  142.0524  168.3193 O.3     1  UNL1       -0.4045
     34 C         140.4658  142.3598  169.3232 C.3     1  UNL1        0.5753
     35 F         139.3945  142.6671  170.3271 F       1  UNL1       -0.1328
     36 F         140.7955  141.0965  170.0617 F       1  UNL1       -0.1328
     37 F         140.1362  143.6231  168.5847 F       1  UNL1       -0.1328
@<TRIPOS>BOND
     1    20    21    1
     2    21    22   ar
     3    22    23   ar
     4    23    24   ar
     5    24    11    1
     6    11    12   ar
     7    12    13   ar
     8    13    14   ar
     9    14    15    1
    10    14    16   ar
    11    16    10    1
    12     1    10    1
    13     1     2    1
    14     2     3    1
    15     3     4   am
    16     4     5    2
    17     4    26    1
    18    26    27    1
    19    27    28   ar
    20    28    29   ar
    21    29    30   ar
    22    30    33    1
    23    33    34    1
    24    34    35    1
    25    34    36    1
    26    34    37    1
    27    30    31   ar
    28    31    32   ar
    29     3     6    1
    30     6     7    1
    31     7     8    1
    32     7     9    1
    33    16    17   ar
    34    24    25   ar
    35    25    21   ar
    36    17    11   ar
    37     7     1    1
    38    32    27   ar
    39    15    18    1
    40    15    19    1
@<TRIPOS>MOLECULE
*****
 37 40 0 0 0
SMALL
GASTEIGER

@<TRIPOS>ATOM
      1 C         139.3828  139.2994  159.2569 C.3     1  UNL1        0.2478
      2 C         140.2129  138.4963  160.2140 C.3     1  UNL1        0.1428
      3 N         139.4234  138.3197  161.4771 N.am    1  UNL1       -0.2700
      4 C         139.8730  137.5792  162.7016 C.2     1  UNL1        0.2303
      5 O         141.2258  136.9320  162.7322 O.2     1  UNL1       -0.2745
      6 C         138.1053  139.0138  161.3008 C.3     1  UNL1        0.1640
      7 C         138.0802  139.6192  159.9285 C.3     1  UNL1        0.3192
      8 F         136.7126  140.0860  160.3309 F       1  UNL1       -0.1985
      9 F         137.7692  140.3223  158.6405 F       1  UNL1       -0.1985
     10 O         139.7847  139.7105  157.8715 O.3     1  UNL1       -0.4689
     11 C         140.9889  136.5191  155.8431 C.ar    1  UNL1        0.0415
     12 C         140.1289  136.6205  154.6183 C.ar    1  UNL1        0.1020
     13 N         139.1542  137.7519  154.4779 N.ar    1  UNL1       -0.2264
     14 C         139.0394  138.7819  155.5623 C.ar    1  UNL1        0.1597
     15 N         138.0647  139.9134  155.4219 N.pl3   1  UNL1       -0.3402
     16 C         139.8994  138.6805  156.7871 C.ar    1  UNL1        0.1697
     17 C         140.8741  137.5491  156.9275 C.ar    1  UNL1        0.0429
     18 H         137.5002  139.9800  154.6180 H       1  UNL1        0.1438
     19 H         137.9893  140.5895  156.1336 H       1  UNL1        0.1438
     20 C         143.4806  131.9191  155.1269 C.3     1  UNL1        0.1321
     21 N         143.1090  133.2733  155.6543 N.ar    1  UNL1       -0.3059
     22 C         143.8184  134.0198  156.7450 C.ar    1  UNL1        0.1786
     23 N         143.1105  135.3265  156.9485 N.ar    1  UNL1       -0.2238
     24 C         141.9636  135.3876  155.9835 C.ar    1  UNL1        0.1018
     25 C         141.9627  134.1186  155.1837 C.ar    1  UNL1        0.0965
     26 C         138.9698  137.4859  163.8955 C.3     1  UNL1        0.1116
     27 C         139.2406  138.3258  165.1085 C.ar    1  UNL1       -0.0129
     28 C         138.1822  138.4903  166.1585 C.ar    1  UNL1       -0.0007
     29 C         138.4531  139.3303  167.3714 C.ar    1  UNL1        0.0369
     30 C         139.7824  140.0057  167.5343 C.ar    1  UNL1        0.1468
     31 C         140.8410  139.8412  166.4842 C.ar    1  UNL1        0.0369
     32 C         140.5701  139.0013  165.2713 C.ar    1  UNL1       -0.0007
     33 O         140.0534  140.8456  168.7471 O.3     1  UNL1       -0.4045
     34 C         139.8983  140.2560  170.1176 C.3     1  UNL1        0.5753
     35 F         139.7431  139.6664  171.4881 F       1  UNL1       -0.1328
     36 F         138.6419  141.0507  170.3174 F       1  UNL1       -0.1328
     37 F         141.1546  139.4612  169.9179 F       1  UNL1       -0.1328
@<TRIPOS>BOND
     1    20    21    1
     2    21    22   ar
     3    22    23   ar
     4    23    24   ar
     5    24    11    1
     6    11    12   ar
     7    12    13   ar
     8    13    14   ar
     9    14    15    1
    10    14    16   ar
    11    16    10    1
    12     1    10    1
    13     1     2    1
    14     2     3    1
    15     3     4   am
    16     4     5    2
    17     4    26    1
    18    26    27    1
    19    27    28   ar
    20    28    29   ar
    21    29    30   ar
    22    30    33    1
    23    33    34    1
    24    34    35    1
    25    34    36    1
    26    34    37    1
    27    30    31   ar
    28    31    32   ar
    29     3     6    1
    30     6     7    1
    31     7     8    1
    32     7     9    1
    33    16    17   ar
    34    24    25   ar
    35    25    21   ar
    36    17    11   ar
    37     7     1    1
    38    32    27   ar
    39    15    18    1
    40    15    19    1
