@<TRIPOS>MOLECULE
*****
 34 36 0 0 0
SMALL
GASTEIGER

@<TRIPOS>ATOM
      1 C         139.6881  141.5154  164.9875 C.ar    1  UNL1        0.0377
      2 C         139.1197  140.5897  163.9532 C.ar    1  UNL1        0.0032
      3 C         138.4417  139.3198  164.3748 C.ar    1  UNL1        0.0032
      4 C         138.3322  138.9757  165.8307 C.ar    1  UNL1        0.0377
      5 C         138.9005  139.9015  166.8650 C.ar    1  UNL1        0.1501
      6 C         139.5785  141.1714  166.4434 C.ar    1  UNL1        0.0407
      7 C         143.4132  145.0747  163.8315 C.3     1  UNL1        0.0725
      8 C         142.0783  144.4214  164.0346 C.ar    1  UNL1        0.1234
      9 C         140.7404  145.0578  163.7999 C.ar    1  UNL1        0.0405
     10 C         139.6822  144.0467  164.1283 C.ar    1  UNL1        0.0903
     11 C         140.3661  142.7854  164.5660 C.ar    1  UNL1        0.1492
     12 O         141.8470  143.0170  164.5081 O.2     1  UNL1       -0.4576
     13 C         138.2003  144.2595  164.0354 C.2     1  UNL1        0.2458
     14 N         137.5303  144.2948  162.6939 N.am    1  UNL1       -0.3252
     15 O         137.3883  144.4370  165.2841 O.2     1  UNL1       -0.2703
     16 H         138.0632  144.1783  161.8743 H       1  UNL1        0.1453
     17 H         136.5577  144.4345  162.6329 H       1  UNL1        0.1453
     18 O         138.7909  139.5574  168.3209 O.3     1  UNL1       -0.4103
     19 C         139.6689  140.2470  169.3227 C.2     1  UNL1        0.4062
     20 O         139.1196  141.3666  170.1563 O.2     1  UNL1       -0.2260
     21 N         141.0960  139.8171  169.4909 N.am    1  UNL1       -0.2704
     22 H         141.4566  139.0823  168.9437 H       1  UNL1        0.1527
     23 C         141.9740  140.5068  170.4927 C.3     1  UNL1        0.0927
     24 C         142.5431  141.8602  170.1853 C.3     1  UNL1        0.0214
     25 C         143.4364  142.0454  168.9947 C.3     1  UNL1        0.0018
     26 C         142.8470  142.1029  167.6165 C.3     1  UNL1        0.0004
     27 C         143.3686  141.1985  166.5394 C.3     1  UNL1        0.0047
     28 C         142.9352  139.7633  166.4901 C.3     1  UNL1        0.0264
     29 C         142.5189  139.1499  165.1861 C.ar    1  UNL1       -0.0222
     30 C         141.7926  137.8376  165.1726 C.ar    1  UNL1       -0.0043
     31 C         141.3764  137.2241  163.8686 C.ar    1  UNL1       -0.0003
     32 C         141.6864  137.9231  162.5781 C.ar    1  UNL1       -0.0000
     33 C         142.4127  139.2355  162.5916 C.ar    1  UNL1       -0.0003
     34 C         142.8290  139.8489  163.8956 C.ar    1  UNL1       -0.0043
@<TRIPOS>BOND
     1     7     8    1
     2     8     9   ar
     3     9    10   ar
     4    10    13    1
     5    13    14   am
     6    13    15    2
     7    10    11   ar
     8    11     1    1
     9     1     2   ar
    10     2     3   ar
    11     3     4   ar
    12     4     5   ar
    13     5    18    1
    14    18    19    1
    15    19    20    2
    16    19    21   am
    17    21    23    1
    18    23    24    1
    19    24    25    1
    20    25    26    1
    21    26    27    1
    22    27    28    1
    23    28    29    1
    24    29    30   ar
    25    30    31   ar
    26    31    32   ar
    27    32    33   ar
    28    33    34   ar
    29     5     6   ar
    30    11    12   ar
    31    12     8   ar
    32     6     1   ar
    33    34    29   ar
    34    14    16    1
    35    14    17    1
    36    21    22    1
@<TRIPOS>MOLECULE
*****
 34 36 0 0 0
SMALL
GASTEIGER

@<TRIPOS>ATOM
      1 C         142.5880  141.8931  163.8733 C.ar    1  UNL1        0.0377
      2 C         143.9196  141.9541  164.5611 C.ar    1  UNL1        0.0032
      3 C         144.8928  140.8223  164.4130 C.ar    1  UNL1        0.0032
      4 C         144.5343  139.6295  163.5771 C.ar    1  UNL1        0.0377
      5 C         143.2027  139.5685  162.8893 C.ar    1  UNL1        0.1501
      6 C         142.2296  140.7003  163.0375 C.ar    1  UNL1        0.0407
      7 C         138.5787  144.8787  165.5742 C.3     1  UNL1        0.0725
      8 C         139.7720  144.3973  164.8032 C.ar    1  UNL1        0.1234
      9 C         140.4626  145.1360  163.6953 C.ar    1  UNL1        0.0405
     10 C         141.6015  144.2878  163.2121 C.ar    1  UNL1        0.0903
     11 C         141.6148  143.0249  164.0214 C.ar    1  UNL1        0.1492
     12 O         140.4841  143.0926  165.0047 O.2     1  UNL1       -0.4576
     13 C         142.5590  144.6407  162.1127 C.2     1  UNL1        0.2458
     14 N         142.0436  144.9372  160.7357 N.am    1  UNL1       -0.3252
     15 O         144.0320  144.6970  162.3904 O.2     1  UNL1       -0.2703
     16 H         141.0768  144.9002  160.5534 H       1  UNL1        0.1453
     17 H         142.6721  145.1687  160.0141 H       1  UNL1        0.1453
     18 O         142.8442  138.3756  162.0535 O.3     1  UNL1       -0.4103
     19 C         141.4253  137.8915  162.0070 C.2     1  UNL1        0.4062
     20 O         140.9687  136.8158  162.9475 O.2     1  UNL1       -0.2260
     21 N         140.4630  138.4830  161.0200 N.am    1  UNL1       -0.2704
     22 H         140.7627  139.1890  160.4028 H       1  UNL1        0.1527
     23 C         139.0440  137.9988  160.9736 C.3     1  UNL1        0.0927
     24 C         138.0583  138.4652  162.0035 C.3     1  UNL1        0.0214
     25 C         137.8235  139.9327  162.2066 C.3     1  UNL1        0.0018
     26 C         138.5695  140.6703  163.2788 C.3     1  UNL1        0.0004
     27 C         138.0073  140.7454  164.6675 C.3     1  UNL1        0.0047
     28 C         138.4309  139.7463  165.7031 C.3     1  UNL1        0.0264
     29 C         139.7970  139.8349  166.3161 C.ar    1  UNL1       -0.0222
     30 C         140.9044  138.9589  165.8099 C.ar    1  UNL1       -0.0043
     31 C         142.2706  139.0475  166.4229 C.ar    1  UNL1       -0.0003
     32 C         142.5293  140.0120  167.5422 C.ar    1  UNL1       -0.0000
     33 C         141.4218  140.8880  168.0484 C.ar    1  UNL1       -0.0003
     34 C         140.0557  140.7994  167.4353 C.ar    1  UNL1       -0.0043
@<TRIPOS>BOND
     1     7     8    1
     2     8     9   ar
     3     9    10   ar
     4    10    13    1
     5    13    14   am
     6    13    15    2
     7    10    11   ar
     8    11     1    1
     9     1     2   ar
    10     2     3   ar
    11     3     4   ar
    12     4     5   ar
    13     5    18    1
    14    18    19    1
    15    19    20    2
    16    19    21   am
    17    21    23    1
    18    23    24    1
    19    24    25    1
    20    25    26    1
    21    26    27    1
    22    27    28    1
    23    28    29    1
    24    29    30   ar
    25    30    31   ar
    26    31    32   ar
    27    32    33   ar
    28    33    34   ar
    29     5     6   ar
    30    11    12   ar
    31    12     8   ar
    32     6     1   ar
    33    34    29   ar
    34    14    16    1
    35    14    17    1
    36    21    22    1
@<TRIPOS>MOLECULE
*****
 34 36 0 0 0
SMALL
GASTEIGER

@<TRIPOS>ATOM
      1 C         142.0851  140.4280  167.2624 C.ar    1  UNL1        0.0377
      2 C         142.5380  139.1717  166.5795 C.ar    1  UNL1        0.0032
      3 C         143.4137  139.2525  165.3643 C.ar    1  UNL1        0.0032
      4 C         143.8365  140.5897  164.8322 C.ar    1  UNL1        0.0377
      5 C         143.3837  141.8460  165.5151 C.ar    1  UNL1        0.1501
      6 C         142.5079  141.7652  166.7302 C.ar    1  UNL1        0.0407
      7 C         137.8349  140.0617  170.3741 C.3     1  UNL1        0.0725
      8 C         139.2558  140.1788  169.9078 C.ar    1  UNL1        0.1234
      9 C         140.4678  140.2670  170.7872 C.ar    1  UNL1        0.0405
     10 C         141.6752  140.3710  169.9032 C.ar    1  UNL1        0.0903
     11 C         141.2093  140.3472  168.4776 C.ar    1  UNL1        0.1492
     12 O         139.7141  140.2284  168.4804 O.2     1  UNL1       -0.4576
     13 C         143.0985  140.4798  170.3640 C.2     1  UNL1        0.2458
     14 N         143.8473  141.7676  170.1887 N.am    1  UNL1       -0.3252
     15 O         143.7731  139.3007  171.0002 O.2     1  UNL1       -0.2703
     16 H         143.4046  142.5415  169.7712 H       1  UNL1        0.1453
     17 H         144.7814  141.8390  170.4912 H       1  UNL1        0.1453
     18 O         143.8065  143.1832  164.9829 O.3     1  UNL1       -0.4103
     19 C         143.0778  143.7930  163.8223 C.2     1  UNL1        0.4062
     20 O         143.8485  144.3590  162.6665 O.2     1  UNL1       -0.2260
     21 N         141.5784  143.8369  163.8174 N.am    1  UNL1       -0.2704
     22 H         141.0726  143.4654  164.5760 H       1  UNL1        0.1527
     23 C         140.8498  144.4468  162.6567 C.3     1  UNL1        0.0927
     24 C         139.5437  143.8657  162.2021 C.3     1  UNL1        0.0214
     25 C         138.2653  144.2835  162.8662 C.3     1  UNL1        0.0018
     26 C         137.9524  143.8110  164.2551 C.3     1  UNL1        0.0004
     27 C         137.8324  142.3428  164.5386 C.3     1  UNL1        0.0047
     28 C         138.9544  141.6162  165.2191 C.3     1  UNL1        0.0264
     29 C         139.4126  140.2867  164.6973 C.ar    1  UNL1       -0.0222
     30 C         140.3130  140.2210  163.4995 C.ar    1  UNL1       -0.0043
     31 C         140.7712  138.8914  162.9777 C.ar    1  UNL1       -0.0003
     32 C         140.3289  137.6275  163.6537 C.ar    1  UNL1       -0.0000
     33 C         139.4285  137.6933  164.8516 C.ar    1  UNL1       -0.0003
     34 C         138.9703  139.0228  165.3734 C.ar    1  UNL1       -0.0043
@<TRIPOS>BOND
     1     7     8    1
     2     8     9   ar
     3     9    10   ar
     4    10    13    1
     5    13    14   am
     6    13    15    2
     7    10    11   ar
     8    11     1    1
     9     1     2   ar
    10     2     3   ar
    11     3     4   ar
    12     4     5   ar
    13     5    18    1
    14    18    19    1
    15    19    20    2
    16    19    21   am
    17    21    23    1
    18    23    24    1
    19    24    25    1
    20    25    26    1
    21    26    27    1
    22    27    28    1
    23    28    29    1
    24    29    30   ar
    25    30    31   ar
    26    31    32   ar
    27    32    33   ar
    28    33    34   ar
    29     5     6   ar
    30    11    12   ar
    31    12     8   ar
    32     6     1   ar
    33    34    29   ar
    34    14    16    1
    35    14    17    1
    36    21    22    1
@<TRIPOS>MOLECULE
*****
 34 36 0 0 0
SMALL
GASTEIGER

@<TRIPOS>ATOM
      1 C         140.7979  143.3890  163.4928 C.ar    1  UNL1        0.0377
      2 C         140.4132  144.5023  164.4216 C.ar    1  UNL1        0.0032
      3 C         138.9678  144.7505  164.7365 C.ar    1  UNL1        0.0032
      4 C         137.9072  143.8856  164.1226 C.ar    1  UNL1        0.0377
      5 C         138.2919  142.7723  163.1939 C.ar    1  UNL1        0.1501
      6 C         139.7373  142.5241  162.8789 C.ar    1  UNL1        0.0407
      7 C         145.8122  141.7754  163.8594 C.3     1  UNL1        0.0725
      8 C         144.5481  142.3990  163.3463 C.ar    1  UNL1        0.1234
      9 C         144.3870  143.1183  162.0399 C.ar    1  UNL1        0.0405
     10 C         142.9626  143.5766  161.9358 C.ar    1  UNL1        0.0903
     11 C         142.2434  143.1407  163.1778 C.ar    1  UNL1        0.1492
     12 O         143.2233  142.4129  164.0496 O.2     1  UNL1       -0.4576
     13 C         142.3627  144.3374  160.7906 C.2     1  UNL1        0.2458
     14 N         141.4864  145.5254  161.0564 N.am    1  UNL1       -0.3252
     15 O         142.6391  143.9101  159.3796 O.2     1  UNL1       -0.2703
     16 H         141.3049  145.8058  161.9825 H       1  UNL1        0.1453
     17 H         141.0927  146.0246  160.3048 H       1  UNL1        0.1453
     18 O         137.2312  141.9074  162.5800 O.3     1  UNL1       -0.4103
     19 C         137.5629  140.5122  162.1401 C.2     1  UNL1        0.4062
     20 O         137.3420  140.1030  160.7140 O.2     1  UNL1       -0.2260
     21 N         138.1154  139.5263  163.1263 N.am    1  UNL1       -0.2704
     22 H         138.2604  139.7948  164.0623 H       1  UNL1        0.1527
     23 C         138.4471  138.1311  162.6863 C.3     1  UNL1        0.0927
     24 C         139.5612  137.3795  163.3526 C.3     1  UNL1        0.0214
     25 C         139.9743  137.7339  164.7503 C.3     1  UNL1        0.0018
     26 C         141.3033  138.3839  164.9976 C.3     1  UNL1        0.0004
     27 C         141.3665  139.8096  165.4596 C.3     1  UNL1        0.0047
     28 C         140.1200  140.5041  165.9221 C.3     1  UNL1        0.0264
     29 C         140.0530  141.0834  167.3041 C.ar    1  UNL1       -0.0222
     30 C         139.5028  140.2652  168.4344 C.ar    1  UNL1       -0.0043
     31 C         139.4357  140.8445  169.8165 C.ar    1  UNL1       -0.0003
     32 C         139.9190  142.2420  170.0681 C.ar    1  UNL1       -0.0000
     33 C         140.4693  143.0603  168.9377 C.ar    1  UNL1       -0.0003
     34 C         140.5363  142.4810  167.5558 C.ar    1  UNL1       -0.0043
@<TRIPOS>BOND
     1     7     8    1
     2     8     9   ar
     3     9    10   ar
     4    10    13    1
     5    13    14   am
     6    13    15    2
     7    10    11   ar
     8    11     1    1
     9     1     2   ar
    10     2     3   ar
    11     3     4   ar
    12     4     5   ar
    13     5    18    1
    14    18    19    1
    15    19    20    2
    16    19    21   am
    17    21    23    1
    18    23    24    1
    19    24    25    1
    20    25    26    1
    21    26    27    1
    22    27    28    1
    23    28    29    1
    24    29    30   ar
    25    30    31   ar
    26    31    32   ar
    27    32    33   ar
    28    33    34   ar
    29     5     6   ar
    30    11    12   ar
    31    12     8   ar
    32     6     1   ar
    33    34    29   ar
    34    14    16    1
    35    14    17    1
    36    21    22    1
@<TRIPOS>MOLECULE
*****
 34 36 0 0 0
SMALL
GASTEIGER

@<TRIPOS>ATOM
      1 C         141.7125  142.3897  163.7299 C.ar    1  UNL1        0.0377
      2 C         142.8953  142.7309  162.8728 C.ar    1  UNL1        0.0032
      3 C         144.2300  142.9912  163.5058 C.ar    1  UNL1        0.0032
      4 C         144.3819  142.9105  164.9959 C.ar    1  UNL1        0.0377
      5 C         143.1992  142.5694  165.8530 C.ar    1  UNL1        0.1501
      6 C         141.8645  142.3090  165.2200 C.ar    1  UNL1        0.0407
      7 C         137.5877  139.9244  161.5415 C.3     1  UNL1        0.0725
      8 C         138.4818  140.9961  162.0910 C.ar    1  UNL1        0.1234
      9 C         138.1657  142.4611  162.1548 C.ar    1  UNL1        0.0405
     10 C         139.3375  143.1614  162.7765 C.ar    1  UNL1        0.0903
     11 C         140.3777  142.1293  163.0969 C.ar    1  UNL1        0.1492
     12 O         139.8489  140.7911  162.6733 O.2     1  UNL1       -0.4576
     13 C         139.4494  144.6351  163.0327 C.2     1  UNL1        0.2458
     14 N         139.8694  145.1316  164.3844 N.am    1  UNL1       -0.3252
     15 O         139.1413  145.6124  161.9373 O.2     1  UNL1       -0.2703
     16 H         140.0716  144.4903  165.1034 H       1  UNL1        0.1453
     17 H         139.9428  146.0989  164.5525 H       1  UNL1        0.1453
     18 O         143.3511  142.4886  167.3431 O.3     1  UNL1       -0.4103
     19 C         142.4581  141.5847  168.1402 C.2     1  UNL1        0.4062
     20 O         142.9646  140.2526  168.6084 O.2     1  UNL1       -0.2260
     21 N         141.0586  142.0127  168.4691 N.am    1  UNL1       -0.2704
     22 H         140.7262  142.8870  168.1618 H       1  UNL1        0.1527
     23 C         140.1656  141.1087  169.2662 C.3     1  UNL1        0.0927
     24 C         139.3888  140.0253  168.5786 C.3     1  UNL1        0.0214
     25 C         139.3492  139.9663  167.0803 C.3     1  UNL1        0.0018
     26 C         138.6738  138.8170  166.3926 C.3     1  UNL1        0.0004
     27 C         139.0363  138.4711  164.9787 C.3     1  UNL1        0.0047
     28 C         140.1866  137.5486  164.7036 C.3     1  UNL1        0.0264
     29 C         141.5543  138.1100  164.4506 C.ar    1  UNL1       -0.0222
     30 C         142.0430  138.2892  163.0438 C.ar    1  UNL1       -0.0043
     31 C         143.4108  138.8506  162.7907 C.ar    1  UNL1       -0.0003
     32 C         144.2899  139.2329  163.9445 C.ar    1  UNL1       -0.0000
     33 C         143.8011  139.0537  165.3513 C.ar    1  UNL1       -0.0003
     34 C         142.4334  138.4923  165.6043 C.ar    1  UNL1       -0.0043
@<TRIPOS>BOND
     1     7     8    1
     2     8     9   ar
     3     9    10   ar
     4    10    13    1
     5    13    14   am
     6    13    15    2
     7    10    11   ar
     8    11     1    1
     9     1     2   ar
    10     2     3   ar
    11     3     4   ar
    12     4     5   ar
    13     5    18    1
    14    18    19    1
    15    19    20    2
    16    19    21   am
    17    21    23    1
    18    23    24    1
    19    24    25    1
    20    25    26    1
    21    26    27    1
    22    27    28    1
    23    28    29    1
    24    29    30   ar
    25    30    31   ar
    26    31    32   ar
    27    32    33   ar
    28    33    34   ar
    29     5     6   ar
    30    11    12   ar
    31    12     8   ar
    32     6     1   ar
    33    34    29   ar
    34    14    16    1
    35    14    17    1
    36    21    22    1
@<TRIPOS>MOLECULE
*****
 34 36 0 0 0
SMALL
GASTEIGER

@<TRIPOS>ATOM
      1 C         140.2425  139.9830  166.7128 C.ar    1  UNL1        0.0377
      2 C         138.9226  139.2729  166.7727 C.ar    1  UNL1        0.0032
      3 C         138.5074  138.3660  165.6523 C.ar    1  UNL1        0.0032
      4 C         139.4121  138.1693  164.4722 C.ar    1  UNL1        0.0377
      5 C         140.7320  138.8794  164.4123 C.ar    1  UNL1        0.1501
      6 C         141.1472  139.7862  165.5326 C.ar    1  UNL1        0.0407
      7 C         140.5488  144.1320  169.9645 C.3     1  UNL1        0.0725
      8 C         140.7985  142.7969  169.3278 C.ar    1  UNL1        0.1234
      9 C         141.7950  141.7739  169.7866 C.ar    1  UNL1        0.0405
     10 C         141.7079  140.5953  168.8629 C.ar    1  UNL1        0.0903
     11 C         140.6577  140.8899  167.8332 C.ar    1  UNL1        0.1492
     12 O         140.0957  142.2506  168.1205 O.2     1  UNL1       -0.4576
     13 C         142.5273  139.3421  168.9530 C.2     1  UNL1        0.2458
     14 N         142.6287  138.6043  170.2551 N.am    1  UNL1       -0.3252
     15 O         143.2452  138.8266  167.7411 O.2     1  UNL1       -0.2703
     16 H         142.1575  138.9426  171.0505 H       1  UNL1        0.1453
     17 H         143.1665  137.7818  170.3142 H       1  UNL1        0.1453
     18 O         141.6367  138.6826  163.2321 O.3     1  UNL1       -0.4103
     19 C         142.9797  139.3497  163.1972 C.2     1  UNL1        0.4062
     20 O         144.1169  138.7885  163.9985 O.2     1  UNL1       -0.2260
     21 N         143.1856  140.5779  162.3611 N.am    1  UNL1       -0.2704
     22 H         142.4393  140.9462  161.8352 H       1  UNL1        0.1527
     23 C         144.5287  141.2449  162.3262 C.3     1  UNL1        0.0927
     24 C         144.8351  142.3644  163.2764 C.3     1  UNL1        0.0214
     25 C         144.5277  142.2137  164.7368 C.3     1  UNL1        0.0018
     26 C         143.3828  142.9690  165.3441 C.3     1  UNL1        0.0004
     27 C         142.3304  143.5726  164.4619 C.3     1  UNL1        0.0047
     28 C         140.8995  143.5978  164.9110 C.3     1  UNL1        0.0264
     29 C         139.8725  142.7760  164.1898 C.ar    1  UNL1       -0.0222
     30 C         140.1828  142.2062  162.8374 C.ar    1  UNL1       -0.0043
     31 C         139.1558  141.3844  162.1162 C.ar    1  UNL1       -0.0003
     32 C         137.8187  141.1325  162.7474 C.ar    1  UNL1       -0.0000
     33 C         137.5084  141.7023  164.0999 C.ar    1  UNL1       -0.0003
     34 C         138.5354  142.5241  164.8211 C.ar    1  UNL1       -0.0043
@<TRIPOS>BOND
     1     7     8    1
     2     8     9   ar
     3     9    10   ar
     4    10    13    1
     5    13    14   am
     6    13    15    2
     7    10    11   ar
     8    11     1    1
     9     1     2   ar
    10     2     3   ar
    11     3     4   ar
    12     4     5   ar
    13     5    18    1
    14    18    19    1
    15    19    20    2
    16    19    21   am
    17    21    23    1
    18    23    24    1
    19    24    25    1
    20    25    26    1
    21    26    27    1
    22    27    28    1
    23    28    29    1
    24    29    30   ar
    25    30    31   ar
    26    31    32   ar
    27    32    33   ar
    28    33    34   ar
    29     5     6   ar
    30    11    12   ar
    31    12     8   ar
    32     6     1   ar
    33    34    29   ar
    34    14    16    1
    35    14    17    1
    36    21    22    1
@<TRIPOS>MOLECULE
*****
 34 36 0 0 0
SMALL
GASTEIGER

@<TRIPOS>ATOM
      1 C         141.9160  141.8769  166.8848 C.ar    1  UNL1        0.0377
      2 C         143.0942  142.5109  166.2067 C.ar    1  UNL1        0.0032
      3 C         142.9031  143.2749  164.9300 C.ar    1  UNL1        0.0032
      4 C         141.5339  143.4048  164.3316 C.ar    1  UNL1        0.0377
      5 C         140.3557  142.7709  165.0097 C.ar    1  UNL1        0.1501
      6 C         140.5468  142.0069  166.2863 C.ar    1  UNL1        0.0407
      7 C         142.9467  137.9864  170.3028 C.3     1  UNL1        0.0725
      8 C         142.5809  139.3247  169.7326 C.ar    1  UNL1        0.1234
      9 C         142.2213  140.5500  170.5196 C.ar    1  UNL1        0.0405
     10 C         141.9285  141.6552  169.5486 C.ar    1  UNL1        0.0903
     11 C         142.1071  141.1129  168.1615 C.ar    1  UNL1        0.1492
     12 O         142.5103  139.6726  168.2752 O.2     1  UNL1       -0.4576
     13 C         141.5276  143.0566  169.9026 C.2     1  UNL1        0.2458
     14 N         142.4598  143.9266  170.6925 N.am    1  UNL1       -0.3252
     15 O         140.1943  143.5880  169.4668 O.2     1  UNL1       -0.2703
     16 H         143.3349  143.5779  170.9785 H       1  UNL1        0.1453
     17 H         142.1966  144.8464  170.9248 H       1  UNL1        0.1453
     18 O         138.9864  142.9008  164.4112 O.3     1  UNL1       -0.4103
     19 C         138.4845  141.8609  163.4539 C.2     1  UNL1        0.4062
     20 O         137.3649  142.1877  162.5106 O.2     1  UNL1       -0.2260
     21 N         139.1022  140.4940  163.4398 N.am    1  UNL1       -0.2704
     22 H         139.8370  140.2794  164.0589 H       1  UNL1        0.1527
     23 C         138.6002  139.4540  162.4824 C.3     1  UNL1        0.0927
     24 C         138.8249  137.9991  162.7700 C.3     1  UNL1        0.0214
     25 C         138.8294  137.5066  164.1868 C.3     1  UNL1        0.0018
     26 C         140.0938  137.5516  164.9925 C.3     1  UNL1        0.0004
     27 C         141.4208  137.6536  164.3004 C.3     1  UNL1        0.0047
     28 C         142.5335  138.4424  164.9248 C.3     1  UNL1        0.0264
     29 C         143.3064  139.4299  164.1017 C.ar    1  UNL1       -0.0222
     30 C         144.6962  139.8206  164.5088 C.ar    1  UNL1       -0.0043
     31 C         145.4692  140.8081  163.6857 C.ar    1  UNL1       -0.0003
     32 C         144.8522  141.4049  162.4556 C.ar    1  UNL1       -0.0000
     33 C         143.4624  141.0141  162.0485 C.ar    1  UNL1       -0.0003
     34 C         142.6895  140.0266  162.8715 C.ar    1  UNL1       -0.0043
@<TRIPOS>BOND
     1     7     8    1
     2     8     9   ar
     3     9    10   ar
     4    10    13    1
     5    13    14   am
     6    13    15    2
     7    10    11   ar
     8    11     1    1
     9     1     2   ar
    10     2     3   ar
    11     3     4   ar
    12     4     5   ar
    13     5    18    1
    14    18    19    1
    15    19    20    2
    16    19    21   am
    17    21    23    1
    18    23    24    1
    19    24    25    1
    20    25    26    1
    21    26    27    1
    22    27    28    1
    23    28    29    1
    24    29    30   ar
    25    30    31   ar
    26    31    32   ar
    27    32    33   ar
    28    33    34   ar
    29     5     6   ar
    30    11    12   ar
    31    12     8   ar
    32     6     1   ar
    33    34    29   ar
    34    14    16    1
    35    14    17    1
    36    21    22    1
@<TRIPOS>MOLECULE
*****
 34 36 0 0 0
SMALL
GASTEIGER

@<TRIPOS>ATOM
      1 C         141.5226  141.6049  162.4105 C.ar    1  UNL1        0.0377
      2 C         142.6894  141.7353  161.4769 C.ar    1  UNL1        0.0032
      3 C         143.2614  140.5161  160.8166 C.ar    1  UNL1        0.0032
      4 C         142.6667  139.1664  161.0899 C.ar    1  UNL1        0.0377
      5 C         141.5000  139.0360  162.0235 C.ar    1  UNL1        0.1501
      6 C         140.9280  140.2552  162.6838 C.ar    1  UNL1        0.0407
      7 C         138.5270  144.7528  165.4103 C.3     1  UNL1        0.0725
      8 C         139.5736  144.2711  164.4497 C.ar    1  UNL1        0.1234
      9 C         140.5668  145.1300  163.7244 C.ar    1  UNL1        0.0405
     10 C         141.4178  144.2357  162.8722 C.ar    1  UNL1        0.0903
     11 C         140.9505  142.8243  163.0709 C.ar    1  UNL1        0.1492
     12 O         139.8108  142.8462  164.0458 O.2     1  UNL1       -0.4576
     13 C         142.5391  144.6757  161.9784 C.2     1  UNL1        0.2458
     14 N         143.8699  145.0383  162.5677 N.am    1  UNL1       -0.3252
     15 O         142.3296  144.7531  160.4951 O.2     1  UNL1       -0.2703
     16 H         144.0075  144.9875  163.5412 H       1  UNL1        0.1453
     17 H         144.6059  145.3271  161.9810 H       1  UNL1        0.1453
     18 O         140.9053  137.6863  162.2968 O.3     1  UNL1       -0.4103
     19 C         139.7410  137.5554  163.2333 C.2     1  UNL1        0.4062
     20 O         138.3415  137.5455  162.6933 O.2     1  UNL1       -0.2260
     21 N         139.9760  137.4344  164.7098 N.am    1  UNL1       -0.2704
     22 H         140.8944  137.4409  165.0643 H       1  UNL1        0.1527
     23 C         138.8115  137.3036  165.6464 C.3     1  UNL1        0.0927
     24 C         138.1538  138.5321  166.2015 C.3     1  UNL1        0.0214
     25 C         138.9174  139.4433  167.1161 C.3     1  UNL1        0.0018
     26 C         139.4902  140.7259  166.5900 C.3     1  UNL1        0.0004
     27 C         140.9324  141.0588  166.8334 C.3     1  UNL1        0.0047
     28 C         141.9967  140.0441  166.5371 C.3     1  UNL1        0.0264
     29 C         143.1460  140.4020  165.6423 C.ar    1  UNL1       -0.0222
     30 C         143.8810  139.3264  164.8989 C.ar    1  UNL1       -0.0043
     31 C         145.0304  139.6843  164.0040 C.ar    1  UNL1       -0.0003
     32 C         145.4448  141.1180  163.8526 C.ar    1  UNL1       -0.0000
     33 C         144.7098  142.1937  164.5960 C.ar    1  UNL1       -0.0003
     34 C         143.5604  141.8357  165.4909 C.ar    1  UNL1       -0.0043
@<TRIPOS>BOND
     1     7     8    1
     2     8     9   ar
     3     9    10   ar
     4    10    13    1
     5    13    14   am
     6    13    15    2
     7    10    11   ar
     8    11     1    1
     9     1     2   ar
    10     2     3   ar
    11     3     4   ar
    12     4     5   ar
    13     5    18    1
    14    18    19    1
    15    19    20    2
    16    19    21   am
    17    21    23    1
    18    23    24    1
    19    24    25    1
    20    25    26    1
    21    26    27    1
    22    27    28    1
    23    28    29    1
    24    29    30   ar
    25    30    31   ar
    26    31    32   ar
    27    32    33   ar
    28    33    34   ar
    29     5     6   ar
    30    11    12   ar
    31    12     8   ar
    32     6     1   ar
    33    34    29   ar
    34    14    16    1
    35    14    17    1
    36    21    22    1
@<TRIPOS>MOLECULE
*****
 34 36 0 0 0
SMALL
GASTEIGER

@<TRIPOS>ATOM
      1 C         140.6319  143.2726  163.7068 C.ar    1  UNL1        0.0377
      2 C         140.2549  144.2905  164.7420 C.ar    1  UNL1        0.0032
      3 C         138.8153  144.4795  165.1185 C.ar    1  UNL1        0.0032
      4 C         137.7528  143.6506  164.4599 C.ar    1  UNL1        0.0377
      5 C         138.1298  142.6327  163.4247 C.ar    1  UNL1        0.1501
      6 C         139.5694  142.4437  163.0482 C.ar    1  UNL1        0.0407
      7 C         145.7002  141.7956  163.8200 C.3     1  UNL1        0.0725
      8 C         144.4012  142.4047  163.3822 C.ar    1  UNL1        0.1234
      9 C         144.1726  143.1808  162.1190 C.ar    1  UNL1        0.0405
     10 C         142.7329  143.6003  162.0869 C.ar    1  UNL1        0.0903
     11 C         142.0716  143.0836  163.3302 C.ar    1  UNL1        0.1492
     12 O         143.1026  142.3446  164.1307 O.2     1  UNL1       -0.4576
     13 C         142.0707  144.3968  161.0020 C.2     1  UNL1        0.2458
     14 N         142.4180  144.1412  159.5654 N.am    1  UNL1       -0.3252
     15 O         141.0611  145.4490  161.3537 O.2     1  UNL1       -0.2703
     16 H         143.0806  143.4506  159.3345 H       1  UNL1        0.1453
     17 H         141.9833  144.6640  158.8533 H       1  UNL1        0.1453
     18 O         137.0672  141.8037  162.7661 O.3     1  UNL1       -0.4103
     19 C         137.4506  140.6147  161.9360 C.2     1  UNL1        0.4062
     20 O         137.2826  140.6546  160.4459 O.2     1  UNL1       -0.2260
     21 N         138.0020  139.3856  162.5959 N.am    1  UNL1       -0.2704
     22 H         138.1122  139.3594  163.5738 H       1  UNL1        0.1527
     23 C         138.3854  138.1965  161.7657 C.3     1  UNL1        0.0927
     24 C         139.8197  137.9793  161.3841 C.3     1  UNL1        0.0214
     25 C         140.6943  139.1527  161.0555 C.3     1  UNL1        0.0018
     26 C         141.7412  139.6041  162.0302 C.3     1  UNL1        0.0004
     27 C         142.4149  138.6050  162.9235 C.3     1  UNL1        0.0047
     28 C         142.2574  138.7035  164.4120 C.3     1  UNL1        0.0264
     29 C         140.8878  138.7917  165.0170 C.ar    1  UNL1       -0.0222
     30 C         139.9915  137.5889  165.0226 C.ar    1  UNL1       -0.0043
     31 C         138.6218  137.6770  165.6277 C.ar    1  UNL1       -0.0003
     32 C         138.1483  138.9679  166.2272 C.ar    1  UNL1       -0.0000
     33 C         139.0447  140.1707  166.2216 C.ar    1  UNL1       -0.0003
     34 C         140.4143  140.0826  165.6166 C.ar    1  UNL1       -0.0043
@<TRIPOS>BOND
     1     7     8    1
     2     8     9   ar
     3     9    10   ar
     4    10    13    1
     5    13    14   am
     6    13    15    2
     7    10    11   ar
     8    11     1    1
     9     1     2   ar
    10     2     3   ar
    11     3     4   ar
    12     4     5   ar
    13     5    18    1
    14    18    19    1
    15    19    20    2
    16    19    21   am
    17    21    23    1
    18    23    24    1
    19    24    25    1
    20    25    26    1
    21    26    27    1
    22    27    28    1
    23    28    29    1
    24    29    30   ar
    25    30    31   ar
    26    31    32   ar
    27    32    33   ar
    28    33    34   ar
    29     5     6   ar
    30    11    12   ar
    31    12     8   ar
    32     6     1   ar
    33    34    29   ar
    34    14    16    1
    35    14    17    1
    36    21    22    1
