@<TRIPOS>MOLECULE
*****
 29 32 0 0 0
SMALL
GASTEIGER

@<TRIPOS>ATOM
      1 C         140.7472  140.1008  165.5357 C.ar    1  UNL1        0.0832
      2 C         139.3267  139.7745  165.1813 C.ar    1  UNL1        0.0125
      3 C         138.2650  139.3095  166.1335 C.3     1  UNL1        0.0340
      4 C         139.1542  139.9948  163.7077 C.ar    1  UNL1        0.0924
      5 N         140.4681  140.4572  163.1512 N.ar    1  UNL1       -0.1671
      6 N         141.4527  140.5227  164.2810 N.ar    1  UNL1       -0.2119
      7 C         143.1803  139.7752  171.0105 C.3     1  UNL1        0.0521
      8 C         142.5721  139.8566  169.6418 C.ar    1  UNL1        0.0594
      9 C         141.4500  140.8158  169.3756 C.ar    1  UNL1        0.0148
     10 C         140.8417  140.8972  168.0069 C.ar    1  UNL1        0.0042
     11 C         141.3555  140.0194  166.9044 C.ar    1  UNL1        0.0366
     12 C         142.4775  139.0602  167.1707 C.ar    1  UNL1        0.0999
     13 N         143.0858  138.9788  168.5394 N.ar    1  UNL1       -0.2481
     14 C         142.8903  140.9374  164.1747 C.ar    1  UNL1        0.1743
     15 N         143.9429  139.9185  163.8519 N.ar    1  UNL1       -0.2243
     16 C         145.3805  140.3332  163.7456 C.ar    1  UNL1        0.1006
     17 C         145.7656  141.7667  163.9621 C.ar    1  UNL1        0.0217
     18 C         144.7130  142.7855  164.2849 C.ar    1  UNL1        0.0161
     19 C         143.2754  142.3708  164.3912 C.ar    1  UNL1        0.0934
     20 CL        142.2229  143.3897  164.7139 Cl      1  UNL1       -0.0790
     21 C         137.8897  139.7888  162.9275 C.3     1  UNL1        0.1166
     22 N         137.0116  140.9598  162.5995 N.3     1  UNL1       -0.2934
     23 H         136.1212  140.8014  163.0712 H       1  UNL1        0.1236
     24 C         137.4499  142.3492  162.9569 C.3     1  UNL1        0.0571
     25 C         137.3912  142.9685  164.3219 C.3     1  UNL1        0.0186
     26 C         137.9288  144.3652  164.2206 C.3     1  UNL1        0.0367
     27 C         138.3197  144.6091  162.7932 C.3     1  UNL1        0.1624
     28 F         138.9041  145.8764  162.2433 F       1  UNL1       -0.2372
     29 C         138.0238  143.3631  162.0121 C.3     1  UNL1        0.0510
@<TRIPOS>BOND
     1     7     8    1
     2     8     9   ar
     3     9    10   ar
     4    10    11   ar
     5    11     1    1
     6     1     2   ar
     7     2     3    1
     8     2     4   ar
     9     4    21    1
    10    21    22    1
    11    24    22    1
    12    24    25    1
    13    25    26    1
    14    26    27    1
    15    27    28    1
    16    27    29    1
    17     4     5   ar
    18     5     6   ar
    19     6    14    1
    20    14    15   ar
    21    15    16   ar
    22    16    17   ar
    23    17    18   ar
    24    18    19   ar
    25    19    20    1
    26    11    12   ar
    27    12    13   ar
    28    13     8   ar
    29     6     1   ar
    30    19    14   ar
    31    29    24    1
    32    22    23    1
@<TRIPOS>MOLECULE
*****
 29 32 0 0 0
SMALL
GASTEIGER

@<TRIPOS>ATOM
      1 C         141.4020  140.3149  167.2436 C.ar    1  UNL1        0.0832
      2 C         141.2563  140.0129  168.7057 C.ar    1  UNL1        0.0125
      3 C         140.1898  140.5483  169.6145 C.3     1  UNL1        0.0340
      4 C         142.3643  139.0817  169.0994 C.ar    1  UNL1        0.0924
      5 N         143.1948  138.8080  167.8807 N.ar    1  UNL1       -0.1671
      6 N         142.6001  139.5701  166.7337 N.ar    1  UNL1       -0.2119
      7 C         137.8213  143.8760  164.0037 C.3     1  UNL1        0.0521
      8 C         138.7165  142.9857  164.8137 C.ar    1  UNL1        0.0594
      9 C         139.8941  143.5662  165.5391 C.ar    1  UNL1        0.0148
     10 C         140.7893  142.6759  166.3491 C.ar    1  UNL1        0.0042
     11 C         140.5068  141.2052  166.4336 C.ar    1  UNL1        0.0366
     12 C         139.3292  140.6247  165.7082 C.ar    1  UNL1        0.0999
     13 N         138.4340  141.5150  164.8982 N.ar    1  UNL1       -0.2481
     14 C         143.1134  139.5850  165.3244 C.ar    1  UNL1        0.1743
     15 N         144.1196  140.6147  164.9034 N.ar    1  UNL1       -0.2243
     16 C         144.6329  140.6296  163.4940 C.ar    1  UNL1        0.1006
     17 C         144.1400  139.6147  162.5056 C.ar    1  UNL1        0.0217
     18 C         143.1338  138.5849  162.9266 C.ar    1  UNL1        0.0161
     19 C         142.6205  138.5701  164.3359 C.ar    1  UNL1        0.0934
     20 CL        141.6143  137.5403  164.7568 Cl      1  UNL1       -0.0790
     21 C         142.6003  138.5223  170.4710 C.3     1  UNL1        0.1166
     22 N         143.9643  138.6036  171.0896 N.3     1  UNL1       -0.2934
     23 H         143.8937  139.2514  171.8743 H       1  UNL1        0.1236
     24 C         144.6266  137.3627  171.6109 C.3     1  UNL1        0.0571
     25 C         144.2385  135.9516  171.2819 C.3     1  UNL1        0.0186
     26 C         145.1653  135.0319  172.0204 C.3     1  UNL1        0.0367
     27 C         146.1262  135.8746  172.8056 C.3     1  UNL1        0.1624
     28 F         147.2267  135.3661  173.6889 F       1  UNL1       -0.2372
     29 C         145.7932  137.3152  172.5526 C.3     1  UNL1        0.0510
@<TRIPOS>BOND
     1     7     8    1
     2     8     9   ar
     3     9    10   ar
     4    10    11   ar
     5    11     1    1
     6     1     2   ar
     7     2     3    1
     8     2     4   ar
     9     4    21    1
    10    21    22    1
    11    24    22    1
    12    24    25    1
    13    25    26    1
    14    26    27    1
    15    27    28    1
    16    27    29    1
    17     4     5   ar
    18     5     6   ar
    19     6    14    1
    20    14    15   ar
    21    15    16   ar
    22    16    17   ar
    23    17    18   ar
    24    18    19   ar
    25    19    20    1
    26    11    12   ar
    27    12    13   ar
    28    13     8   ar
    29     6     1   ar
    30    19    14   ar
    31    29    24    1
    32    22    23    1
@<TRIPOS>MOLECULE
*****
 29 32 0 0 0
SMALL
GASTEIGER

@<TRIPOS>ATOM
      1 C         140.6691  139.7606  165.5016 C.ar    1  UNL1        0.0832
      2 C         139.4299  139.0354  165.0674 C.ar    1  UNL1        0.0125
      3 C         138.3171  138.5771  165.9627 C.3     1  UNL1        0.0340
      4 C         139.4990  138.8487  163.5806 C.ar    1  UNL1        0.0924
      5 N         140.7809  139.4587  163.0960 N.ar    1  UNL1       -0.1671
      6 N         141.5040  140.0222  164.2832 N.ar    1  UNL1       -0.2119
      7 C         142.0445  141.3381  171.1248 C.3     1  UNL1        0.0521
      8 C         141.7006  140.9437  169.7190 C.ar    1  UNL1        0.0594
      9 C         142.5116  139.8972  169.0139 C.ar    1  UNL1        0.0148
     10 C         142.1678  139.5029  167.6081 C.ar    1  UNL1        0.0042
     11 C         141.0129  140.1550  166.9074 C.ar    1  UNL1        0.0366
     12 C         140.2019  141.2014  167.6125 C.ar    1  UNL1        0.0999
     13 N         140.5458  141.5958  169.0183 N.ar    1  UNL1       -0.2481
     14 C         142.8293  140.7241  164.2567 C.ar    1  UNL1        0.1743
     15 N         144.0917  139.9362  164.0673 N.ar    1  UNL1       -0.2243
     16 C         145.4171  140.6381  164.0408 C.ar    1  UNL1        0.1006
     17 C         145.4802  142.1279  164.2036 C.ar    1  UNL1        0.0217
     18 C         144.2179  142.9158  164.3930 C.ar    1  UNL1        0.0161
     19 C         142.8925  142.2139  164.4195 C.ar    1  UNL1        0.0934
     20 CL        141.6302  143.0019  164.6089 Cl      1  UNL1       -0.0790
     21 C         138.4674  138.1712  162.7282 C.3     1  UNL1        0.1166
     22 N         137.5240  138.9909  161.8987 N.3     1  UNL1       -0.2934
     23 H         136.5911  138.8476  162.2856 H       1  UNL1        0.1236
     24 C         137.7216  140.4733  161.7826 C.3     1  UNL1        0.0571
     25 C         138.3265  141.1932  160.6139 C.3     1  UNL1        0.0186
     26 C         138.3278  142.6609  160.9238 C.3     1  UNL1        0.0367
     27 C         137.7238  142.8480  162.2840 C.3     1  UNL1        0.1624
     28 F         137.5287  144.1572  162.9896 F       1  UNL1       -0.2372
     29 C         137.3492  141.4959  162.8148 C.3     1  UNL1        0.0510
@<TRIPOS>BOND
     1     7     8    1
     2     8     9   ar
     3     9    10   ar
     4    10    11   ar
     5    11     1    1
     6     1     2   ar
     7     2     3    1
     8     2     4   ar
     9     4    21    1
    10    21    22    1
    11    24    22    1
    12    24    25    1
    13    25    26    1
    14    26    27    1
    15    27    28    1
    16    27    29    1
    17     4     5   ar
    18     5     6   ar
    19     6    14    1
    20    14    15   ar
    21    15    16   ar
    22    16    17   ar
    23    17    18   ar
    24    18    19   ar
    25    19    20    1
    26    11    12   ar
    27    12    13   ar
    28    13     8   ar
    29     6     1   ar
    30    19    14   ar
    31    29    24    1
    32    22    23    1
@<TRIPOS>MOLECULE
*****
 29 32 0 0 0
SMALL
GASTEIGER

@<TRIPOS>ATOM
      1 C         140.5257  141.2957  165.6761 C.ar    1  UNL1        0.0832
      2 C         139.5188  140.1931  165.5334 C.ar    1  UNL1        0.0125
      3 C         138.9290  139.3874  166.6528 C.3     1  UNL1        0.0340
      4 C         139.2052  140.0376  164.0748 C.ar    1  UNL1        0.0924
      5 N         140.0183  141.0441  163.3160 N.ar    1  UNL1       -0.1671
      6 N         140.8344  141.8217  164.3057 N.ar    1  UNL1       -0.2119
      7 C         142.9012  143.2579  170.8246 C.3     1  UNL1        0.0521
      8 C         142.3074  142.7673  169.5375 C.ar    1  UNL1        0.0594
      9 C         140.9132  143.1667  169.1545 C.ar    1  UNL1        0.0148
     10 C         140.3193  142.6762  167.8674 C.ar    1  UNL1        0.0042
     11 C         141.1196  141.7863  166.9632 C.ar    1  UNL1        0.0366
     12 C         142.5138  141.3869  167.3462 C.ar    1  UNL1        0.0999
     13 N         143.1076  141.8774  168.6333 N.ar    1  UNL1       -0.2481
     14 C         141.7912  142.9305  163.9818 C.ar    1  UNL1        0.1743
     15 N         143.1868  142.6103  163.5346 N.ar    1  UNL1       -0.2243
     16 C         144.1436  143.7191  163.2106 C.ar    1  UNL1        0.1006
     17 C         143.7049  145.1482  163.3339 C.ar    1  UNL1        0.0217
     18 C         142.3094  145.4685  163.7810 C.ar    1  UNL1        0.0161
     19 C         141.3526  144.3596  164.1050 C.ar    1  UNL1        0.0934
     20 CL        139.9570  144.6800  164.5521 Cl      1  UNL1       -0.0790
     21 C         138.2469  139.0491  163.4795 C.3     1  UNL1        0.1166
     22 N         138.7664  137.8671  162.7159 N.3     1  UNL1       -0.2934
     23 H         138.0700  137.6474  162.0038 H       1  UNL1        0.1236
     24 C         140.0905  137.9496  162.0159 C.3     1  UNL1        0.0571
     25 C         140.3180  138.4310  160.6136 C.3     1  UNL1        0.0186
     26 C         141.7876  138.3441  160.3264 C.3     1  UNL1        0.0367
     27 C         142.4685  137.8090  161.5512 C.3     1  UNL1        0.1624
     28 F         143.9399  137.5612  161.7048 F       1  UNL1       -0.2372
     29 C         141.4196  137.5652  162.5954 C.3     1  UNL1        0.0510
@<TRIPOS>BOND
     1     7     8    1
     2     8     9   ar
     3     9    10   ar
     4    10    11   ar
     5    11     1    1
     6     1     2   ar
     7     2     3    1
     8     2     4   ar
     9     4    21    1
    10    21    22    1
    11    24    22    1
    12    24    25    1
    13    25    26    1
    14    26    27    1
    15    27    28    1
    16    27    29    1
    17     4     5   ar
    18     5     6   ar
    19     6    14    1
    20    14    15   ar
    21    15    16   ar
    22    16    17   ar
    23    17    18   ar
    24    18    19   ar
    25    19    20    1
    26    11    12   ar
    27    12    13   ar
    28    13     8   ar
    29     6     1   ar
    30    19    14   ar
    31    29    24    1
    32    22    23    1
@<TRIPOS>MOLECULE
*****
 29 32 0 0 0
SMALL
GASTEIGER

@<TRIPOS>ATOM
      1 C         141.9892  139.3622  165.2772 C.ar    1  UNL1        0.0832
      2 C         142.7603  138.9244  166.4871 C.ar    1  UNL1        0.0125
      3 C         143.9020  137.9516  166.5006 C.3     1  UNL1        0.0340
      4 C         142.1893  139.6304  167.6811 C.ar    1  UNL1        0.0924
      5 N         141.0654  140.5044  167.2091 N.ar    1  UNL1       -0.1671
      6 N         140.9417  140.3386  165.7235 N.ar    1  UNL1       -0.2119
      7 C         142.9299  137.5291  159.6420 C.3     1  UNL1        0.0521
      8 C         142.6947  137.9874  161.0508 C.ar    1  UNL1        0.0594
      9 C         143.6555  138.9386  161.7003 C.ar    1  UNL1        0.0148
     10 C         143.4204  139.3969  163.1091 C.ar    1  UNL1        0.0042
     11 C         142.2244  138.9039  163.8684 C.ar    1  UNL1        0.0366
     12 C         141.2636  137.9526  163.2189 C.ar    1  UNL1        0.0999
     13 N         141.4988  137.4944  161.8101 N.ar    1  UNL1       -0.2481
     14 C         139.9454  141.0283  164.8393 C.ar    1  UNL1        0.1743
     15 N         140.3394  142.2652  164.0876 N.ar    1  UNL1       -0.2243
     16 C         139.3431  142.9549  163.2035 C.ar    1  UNL1        0.1006
     17 C         137.9528  142.4077  163.0709 C.ar    1  UNL1        0.0217
     18 C         137.5588  141.1709  163.8226 C.ar    1  UNL1        0.0161
     19 C         138.5551  140.4812  164.7067 C.ar    1  UNL1        0.0934
     20 CL        138.1610  139.2443  165.4583 Cl      1  UNL1       -0.0790
     21 C         142.6598  139.4873  169.0982 C.3     1  UNL1        0.1166
     22 N         142.8844  140.7079  169.9406 N.3     1  UNL1       -0.2934
     23 H         143.6563  141.2213  169.5153 H       1  UNL1        0.1236
     24 C         141.7713  141.6920  170.1469 C.3     1  UNL1        0.0571
     25 C         140.4000  141.3761  170.6663 C.3     1  UNL1        0.0186
     26 C         139.6153  142.6537  170.7104 C.3     1  UNL1        0.0367
     27 C         140.5016  143.7593  170.2182 C.3     1  UNL1        0.1624
     28 F         140.1221  145.2053  170.0957 F       1  UNL1       -0.2372
     29 C         141.8342  143.1649  169.8699 C.3     1  UNL1        0.0510
@<TRIPOS>BOND
     1     7     8    1
     2     8     9   ar
     3     9    10   ar
     4    10    11   ar
     5    11     1    1
     6     1     2   ar
     7     2     3    1
     8     2     4   ar
     9     4    21    1
    10    21    22    1
    11    24    22    1
    12    24    25    1
    13    25    26    1
    14    26    27    1
    15    27    28    1
    16    27    29    1
    17     4     5   ar
    18     5     6   ar
    19     6    14    1
    20    14    15   ar
    21    15    16   ar
    22    16    17   ar
    23    17    18   ar
    24    18    19   ar
    25    19    20    1
    26    11    12   ar
    27    12    13   ar
    28    13     8   ar
    29     6     1   ar
    30    19    14   ar
    31    29    24    1
    32    22    23    1
@<TRIPOS>MOLECULE
*****
 29 32 0 0 0
SMALL
GASTEIGER

@<TRIPOS>ATOM
      1 C         139.4987  140.7520  165.4009 C.ar    1  UNL1        0.0832
      2 C         139.0177  139.9144  166.5485 C.ar    1  UNL1        0.0125
      3 C         138.1691  138.6818  166.4457 C.3     1  UNL1        0.0340
      4 C         139.5343  140.5258  167.8171 C.ar    1  UNL1        0.0924
      5 N         140.3345  141.7413  167.4535 N.ar    1  UNL1       -0.1671
      6 N         140.3126  141.8810  165.9602 N.ar    1  UNL1       -0.2119
      7 C         138.3663  139.7601  159.5928 C.3     1  UNL1        0.0521
      8 C         138.6494  140.0081  161.0448 C.ar    1  UNL1        0.0594
      9 C         137.6190  140.6757  161.9065 C.ar    1  UNL1        0.0148
     10 C         137.9021  140.9236  163.3585 C.ar    1  UNL1        0.0042
     11 C         139.2156  140.5040  163.9488 C.ar    1  UNL1        0.0366
     12 C         140.2460  139.8364  163.0872 C.ar    1  UNL1        0.0999
     13 N         139.9629  139.5884  161.6351 N.ar    1  UNL1       -0.2481
     14 C         140.9862  142.9604  165.1657 C.ar    1  UNL1        0.1743
     15 N         142.4565  142.8751  164.8804 N.ar    1  UNL1       -0.2243
     16 C         143.1301  143.9545  164.0859 C.ar    1  UNL1        0.1006
     17 C         142.3336  145.1191  163.5767 C.ar    1  UNL1        0.0217
     18 C         140.8635  145.2043  163.8620 C.ar    1  UNL1        0.0161
     19 C         140.1898  144.1250  164.6565 C.ar    1  UNL1        0.0934
     20 CL        138.7196  144.2103  164.9417 Cl      1  UNL1       -0.0790
     21 C         139.2929  140.0120  169.2055 C.3     1  UNL1        0.1166
     22 N         140.4477  139.8062  170.1404 N.3     1  UNL1       -0.2934
     23 H         140.8560  138.9006  169.9092 H       1  UNL1        0.1236
     24 C         141.5753  140.7951  170.1684 C.3     1  UNL1        0.0571
     25 C         142.9297  140.6056  169.5523 C.3     1  UNL1        0.0186
     26 C         143.7379  141.8404  169.8206 C.3     1  UNL1        0.0367
     27 C         142.8830  142.7931  170.6026 C.3     1  UNL1        0.1624
     28 F         143.2927  144.1531  171.0849 F       1  UNL1       -0.2372
     29 C         141.5464  142.1471  170.8176 C.3     1  UNL1        0.0510
@<TRIPOS>BOND
     1     7     8    1
     2     8     9   ar
     3     9    10   ar
     4    10    11   ar
     5    11     1    1
     6     1     2   ar
     7     2     3    1
     8     2     4   ar
     9     4    21    1
    10    21    22    1
    11    24    22    1
    12    24    25    1
    13    25    26    1
    14    26    27    1
    15    27    28    1
    16    27    29    1
    17     4     5   ar
    18     5     6   ar
    19     6    14    1
    20    14    15   ar
    21    15    16   ar
    22    16    17   ar
    23    17    18   ar
    24    18    19   ar
    25    19    20    1
    26    11    12   ar
    27    12    13   ar
    28    13     8   ar
    29     6     1   ar
    30    19    14   ar
    31    29    24    1
    32    22    23    1
@<TRIPOS>MOLECULE
*****
 29 32 0 0 0
SMALL
GASTEIGER

@<TRIPOS>ATOM
      1 C         141.9991  140.5264  165.5922 C.ar    1  UNL1        0.0832
      2 C         142.9243  139.4614  165.0823 C.ar    1  UNL1        0.0125
      3 C         143.7409  138.5260  165.9239 C.3     1  UNL1        0.0340
      4 C         142.8895  139.4961  163.5831 C.ar    1  UNL1        0.0924
      5 N         141.9428  140.5824  163.1664 N.ar    1  UNL1       -0.1671
      6 N         141.3926  141.2192  164.4081 N.ar    1  UNL1       -0.2119
      7 C         140.9151  141.7926  171.3560 C.3     1  UNL1        0.0521
      8 C         141.1861  141.4761  169.9151 C.ar    1  UNL1        0.0594
      9 C         140.3580  140.4468  169.2047 C.ar    1  UNL1        0.0148
     10 C         140.6290  140.1302  167.7638 C.ar    1  UNL1        0.0042
     11 C         141.7281  140.8430  167.0332 C.ar    1  UNL1        0.0366
     12 C         142.5563  141.8723  167.7435 C.ar    1  UNL1        0.0999
     13 N         142.2853  142.1888  169.1845 N.ar    1  UNL1       -0.2481
     14 C         140.4085  142.3502  164.4571 C.ar    1  UNL1        0.1743
     15 N         140.8856  143.7659  164.3209 N.ar    1  UNL1       -0.2243
     16 C         139.9015  144.8969  164.3699 C.ar    1  UNL1        0.1006
     17 C         138.4404  144.6124  164.5549 C.ar    1  UNL1        0.0217
     18 C         137.9634  143.1968  164.6910 C.ar    1  UNL1        0.0161
     19 C         138.9475  142.0658  164.6421 C.ar    1  UNL1        0.0934
     20 CL        138.4703  140.6501  164.7782 Cl      1  UNL1       -0.0790
     21 C         143.6652  138.6014  162.6623 C.3     1  UNL1        0.1166
     22 N         142.9419  137.6522  161.7536 N.3     1  UNL1       -0.2934
     23 H         142.9575  136.7394  162.2085 H       1  UNL1        0.1236
     24 C         141.5168  137.9204  161.3698 C.3     1  UNL1        0.0571
     25 C         141.0494  138.5129  160.0734 C.3     1  UNL1        0.0186
     26 C         139.5527  138.6019  160.1174 C.3     1  UNL1        0.0367
     27 C         139.0951  138.0644  161.4409 C.3     1  UNL1        0.1624
     28 F         137.6732  137.9654  161.9084 F       1  UNL1       -0.2372
     29 C         140.3090  137.6432  162.2150 C.3     1  UNL1        0.0510
@<TRIPOS>BOND
     1     7     8    1
     2     8     9   ar
     3     9    10   ar
     4    10    11   ar
     5    11     1    1
     6     1     2   ar
     7     2     3    1
     8     2     4   ar
     9     4    21    1
    10    21    22    1
    11    24    22    1
    12    24    25    1
    13    25    26    1
    14    26    27    1
    15    27    28    1
    16    27    29    1
    17     4     5   ar
    18     5     6   ar
    19     6    14    1
    20    14    15   ar
    21    15    16   ar
    22    16    17   ar
    23    17    18   ar
    24    18    19   ar
    25    19    20    1
    26    11    12   ar
    27    12    13   ar
    28    13     8   ar
    29     6     1   ar
    30    19    14   ar
    31    29    24    1
    32    22    23    1
@<TRIPOS>MOLECULE
*****
 29 32 0 0 0
SMALL
GASTEIGER

@<TRIPOS>ATOM
      1 C         140.9670  142.7544  165.5731 C.ar    1  UNL1        0.0832
      2 C         139.9028  143.7383  165.1867 C.ar    1  UNL1        0.0125
      3 C         138.9510  144.4210  166.1238 C.3     1  UNL1        0.0340
      4 C         139.9573  143.9196  163.6987 C.ar    1  UNL1        0.0924
      5 N         141.0553  143.0478  163.1654 N.ar    1  UNL1       -0.1671
      6 N         141.6793  142.3277  164.3239 N.ar    1  UNL1       -0.2119
      7 C         142.1647  140.8587  171.1383 C.3     1  UNL1        0.0521
      8 C         141.8653  141.3327  169.7470 C.ar    1  UNL1        0.0594
      9 C         142.9114  142.0694  168.9643 C.ar    1  UNL1        0.0148
     10 C         142.6120  142.5434  167.5730 C.ar    1  UNL1        0.0042
     11 C         141.2664  142.2805  166.9644 C.ar    1  UNL1        0.0366
     12 C         140.2203  141.5437  167.7472 C.ar    1  UNL1        0.0999
     13 N         140.5197  141.0698  169.1385 N.ar    1  UNL1       -0.2481
     14 C         142.8161  141.3521  164.2466 C.ar    1  UNL1        0.1743
     15 N         142.5376  139.8795  164.1831 N.ar    1  UNL1       -0.2243
     16 C         143.6744  138.9039  164.1059 C.ar    1  UNL1        0.1006
     17 C         145.0896  139.4008  164.0921 C.ar    1  UNL1        0.0217
     18 C         145.3680  140.8734  164.1557 C.ar    1  UNL1        0.0161
     19 C         144.2313  141.8490  164.2329 C.ar    1  UNL1        0.0934
     20 CL        144.5098  143.3216  164.2965 Cl      1  UNL1       -0.0790
     21 C         139.0697  144.8155  162.8865 C.3     1  UNL1        0.1166
     22 N         137.9081  144.2377  162.1336 N.3     1  UNL1       -0.2934
     23 H         137.7872  144.8075  161.2963 H       1  UNL1        0.1236
     24 C         137.9432  142.8075  161.6828 C.3     1  UNL1        0.0571
     25 C         138.3982  142.3172  160.3402 C.3     1  UNL1        0.0186
     26 C         138.2657  140.8231  160.3231 C.3     1  UNL1        0.0367
     27 C         137.7288  140.3901  161.6551 C.3     1  UNL1        0.1624
     28 F         137.4417  138.9785  162.0734 F       1  UNL1       -0.2372
     29 C         137.5295  141.6166  162.4955 C.3     1  UNL1        0.0510
@<TRIPOS>BOND
     1     7     8    1
     2     8     9   ar
     3     9    10   ar
     4    10    11   ar
     5    11     1    1
     6     1     2   ar
     7     2     3    1
     8     2     4   ar
     9     4    21    1
    10    21    22    1
    11    24    22    1
    12    24    25    1
    13    25    26    1
    14    26    27    1
    15    27    28    1
    16    27    29    1
    17     4     5   ar
    18     5     6   ar
    19     6    14    1
    20    14    15   ar
    21    15    16   ar
    22    16    17   ar
    23    17    18   ar
    24    18    19   ar
    25    19    20    1
    26    11    12   ar
    27    12    13   ar
    28    13     8   ar
    29     6     1   ar
    30    19    14   ar
    31    29    24    1
    32    22    23    1
@<TRIPOS>MOLECULE
*****
 29 32 0 0 0
SMALL
GASTEIGER

@<TRIPOS>ATOM
      1 C         141.3237  140.5183  165.3126 C.ar    1  UNL1        0.0832
      2 C         142.7356  140.0185  165.2306 C.ar    1  UNL1        0.0125
      3 C         143.2381  138.7059  165.7546 C.3     1  UNL1        0.0340
      4 C         143.5569  141.0617  164.5325 C.ar    1  UNL1        0.0924
      5 N         142.6526  142.2063  164.1831 N.ar    1  UNL1       -0.1671
      6 N         141.2724  141.8705  164.6652 N.ar    1  UNL1       -0.2119
      7 C         136.6944  137.6183  167.7944 C.3     1  UNL1        0.0521
      8 C         137.8517  138.3433  167.1739 C.ar    1  UNL1        0.0594
      9 C         138.2694  138.0258  165.7687 C.ar    1  UNL1        0.0148
     10 C         139.4267  138.7508  165.1483 C.ar    1  UNL1        0.0042
     11 C         140.1664  139.7933  165.9331 C.ar    1  UNL1        0.0366
     12 C         139.7488  140.1108  167.3383 C.ar    1  UNL1        0.0999
     13 N         138.5915  139.3858  167.9587 N.ar    1  UNL1       -0.2481
     14 C         140.0547  142.7350  164.5246 C.ar    1  UNL1        0.1743
     15 N         139.8368  143.8825  165.4659 N.ar    1  UNL1       -0.2243
     16 C         138.6191  144.7471  165.3253 C.ar    1  UNL1        0.1006
     17 C         137.6193  144.4642  164.2435 C.ar    1  UNL1        0.0217
     18 C         137.8372  143.3167  163.3023 C.ar    1  UNL1        0.0161
     19 C         139.0549  142.4522  163.4429 C.ar    1  UNL1        0.0934
     20 CL        139.2727  141.3047  162.5016 Cl      1  UNL1       -0.0790
     21 C         145.0248  140.9755  164.2360 C.3     1  UNL1        0.1166
     22 N         145.4913  140.5340  162.8805 N.3     1  UNL1       -0.2934
     23 H         146.0787  139.7126  163.0244 H       1  UNL1        0.1236
     24 C         144.4902  140.1709  161.8242 C.3     1  UNL1        0.0571
     25 C         143.8356  141.1211  160.8658 C.3     1  UNL1        0.0186
     26 C         142.9087  140.3312  159.9902 C.3     1  UNL1        0.0367
     27 C         142.9903  138.8927  160.4074 C.3     1  UNL1        0.1624
     28 F         142.2283  137.7533  159.7981 F       1  UNL1       -0.2372
     29 C         143.9677  138.7936  161.5410 C.3     1  UNL1        0.0510
@<TRIPOS>BOND
     1     7     8    1
     2     8     9   ar
     3     9    10   ar
     4    10    11   ar
     5    11     1    1
     6     1     2   ar
     7     2     3    1
     8     2     4   ar
     9     4    21    1
    10    21    22    1
    11    24    22    1
    12    24    25    1
    13    25    26    1
    14    26    27    1
    15    27    28    1
    16    27    29    1
    17     4     5   ar
    18     5     6   ar
    19     6    14    1
    20    14    15   ar
    21    15    16   ar
    22    16    17   ar
    23    17    18   ar
    24    18    19   ar
    25    19    20    1
    26    11    12   ar
    27    12    13   ar
    28    13     8   ar
    29     6     1   ar
    30    19    14   ar
    31    29    24    1
    32    22    23    1
