@<TRIPOS>MOLECULE
*****
 20 23 0 0 0
SMALL
GASTEIGER

@<TRIPOS>ATOM
      1 N         142.9215  138.0178  170.5084 N.pl3   1  UNL1       -0.3375
      2 C         142.5686  138.9696  169.4040 C.ar    1  UNL1        0.1567
      3 N         143.1903  139.0062  168.0393 N.ar    1  UNL1       -0.2245
      4 C         142.5379  140.1110  167.2623 C.ar    1  UNL1        0.0889
      5 C         142.7447  140.6122  165.8637 C.ar    1  UNL1        0.0151
      6 C         141.9266  141.7595  165.3495 C.ar    1  UNL1       -0.0232
      7 C         140.9018  142.4056  166.2338 C.ar    1  UNL1       -0.0241
      8 C         140.6950  141.9046  167.6324 C.ar    1  UNL1        0.0035
      9 C         141.5131  140.7572  168.1467 C.ar    1  UNL1        0.0494
     10 S         141.5321  140.0518  169.4703 S.2     1  UNL1       -0.0520
     11 C         139.9869  143.5527  165.9218 C.3     1  UNL1        0.0434
     12 C         139.8709  144.3368  164.6482 C.3     1  UNL1        0.0768
     13 N         140.6411  144.1675  163.3724 N.3     1  UNL1       -0.2734
     14 C         141.7176  143.1723  163.0547 C.3     1  UNL1        0.0768
     15 C         142.2897  142.1007  163.9346 C.3     1  UNL1        0.0434
     16 H         143.6199  137.3382  170.3681 H       1  UNL1        0.1442
     17 H         142.4548  138.0728  171.3735 H       1  UNL1        0.1442
     18 C         140.2882  145.1192  162.2680 C.3     1  UNL1        0.0576
     19 C         139.6228  146.3807  161.8033 C.3     1  UNL1        0.0173
     20 C         140.3423  145.5061  160.8197 C.3     1  UNL1        0.0173
@<TRIPOS>BOND
     1     1     2    1
     2     2     3   ar
     3     3     4   ar
     4     4     5   ar
     5     5     6   ar
     6     6     7   ar
     7     7     8   ar
     8     8     9   ar
     9     9    10   ar
    10     7    11    1
    11    11    12    1
    12    12    13    1
    13    13    18    1
    14    18    19    1
    15    19    20    1
    16    13    14    1
    17    14    15    1
    18    10     2   ar
    19    20    18    1
    20     9     4   ar
    21    15     6    1
    22     1    16    1
    23     1    17    1
@<TRIPOS>MOLECULE
*****
 20 23 0 0 0
SMALL
GASTEIGER

@<TRIPOS>ATOM
      1 N         143.5304  143.8874  171.3836 N.pl3   1  UNL1       -0.3375
      2 C         142.9358  143.1961  170.1926 C.ar    1  UNL1        0.1567
      3 N         143.6875  142.7099  168.9890 N.ar    1  UNL1       -0.2245
      4 C         142.7013  142.0829  168.0486 C.ar    1  UNL1        0.0889
      5 C         142.8670  141.4349  166.7060 C.ar    1  UNL1        0.0151
      6 C         141.6714  140.8855  165.9857 C.ar    1  UNL1       -0.0232
      7 C         140.3103  140.9841  166.6081 C.ar    1  UNL1       -0.0241
      8 C         140.1445  141.6321  167.9507 C.ar    1  UNL1        0.0035
      9 C         141.3401  142.1815  168.6710 C.ar    1  UNL1        0.0494
     10 S         141.4850  142.8695  169.9960 S.2     1  UNL1       -0.0520
     11 C         138.9966  140.5051  166.0650 C.3     1  UNL1        0.0434
     12 C         138.7198  139.8091  164.7653 C.3     1  UNL1        0.0768
     13 N         139.6882  139.4203  163.6879 N.3     1  UNL1       -0.2734
     14 C         141.1726  139.6314  163.6439 C.3     1  UNL1        0.0768
     15 C         142.0553  140.2835  164.6665 C.3     1  UNL1        0.0434
     16 H         144.4992  144.0583  171.4207 H       1  UNL1        0.1442
     17 H         142.9518  144.1704  172.1282 H       1  UNL1        0.1442
     18 C         139.0936  138.7290  162.4969 C.3     1  UNL1        0.0576
     19 C         139.2601  138.0755  161.1570 C.3     1  UNL1        0.0173
     20 C         137.8972  138.1850  161.7738 C.3     1  UNL1        0.0173
@<TRIPOS>BOND
     1     1     2    1
     2     2     3   ar
     3     3     4   ar
     4     4     5   ar
     5     5     6   ar
     6     6     7   ar
     7     7     8   ar
     8     8     9   ar
     9     9    10   ar
    10     7    11    1
    11    11    12    1
    12    12    13    1
    13    13    18    1
    14    18    19    1
    15    19    20    1
    16    13    14    1
    17    14    15    1
    18    10     2   ar
    19    20    18    1
    20     9     4   ar
    21    15     6    1
    22     1    16    1
    23     1    17    1
@<TRIPOS>MOLECULE
*****
 20 23 0 0 0
SMALL
GASTEIGER

@<TRIPOS>ATOM
      1 N         139.1523  146.6862  160.9253 N.pl3   1  UNL1       -0.3375
      2 C         139.5957  145.7928  162.0456 C.ar    1  UNL1        0.1567
      3 N         138.6984  145.0902  163.0210 N.ar    1  UNL1       -0.2245
      4 C         139.5625  144.3083  163.9655 C.ar    1  UNL1        0.0889
      5 C         139.2308  143.4250  165.1316 C.ar    1  UNL1        0.0151
      6 C         140.3306  142.7609  165.9060 C.ar    1  UNL1       -0.0232
      7 C         141.7617  142.9802  165.5144 C.ar    1  UNL1       -0.0241
      8 C         142.0934  143.8635  164.3483 C.ar    1  UNL1        0.0035
      9 C         140.9938  144.5276  163.5739 C.ar    1  UNL1        0.0494
     10 S         141.0143  145.4450  162.3873 S.2     1  UNL1       -0.0520
     11 C         143.0009  142.4184  166.1461 C.3     1  UNL1        0.0434
     12 C         143.1147  141.4986  167.3256 C.3     1  UNL1        0.0768
     13 N         142.0176  140.9134  168.1645 N.3     1  UNL1       -0.2734
     14 C         140.5356  141.1035  168.0313 C.3     1  UNL1        0.0768
     15 C         139.7848  141.9257  167.0261 C.3     1  UNL1        0.0434
     16 H         138.1932  146.8547  160.7802 H       1  UNL1        0.1442
     17 H         139.8203  147.1040  160.3350 H       1  UNL1        0.1442
     18 C         142.4610  140.0200  169.2848 C.3     1  UNL1        0.0576
     19 C         142.6747  138.6439  169.8422 C.3     1  UNL1        0.0173
     20 C         143.0153  139.8487  170.6681 C.3     1  UNL1        0.0173
@<TRIPOS>BOND
     1     1     2    1
     2     2     3   ar
     3     3     4   ar
     4     4     5   ar
     5     5     6   ar
     6     6     7   ar
     7     7     8   ar
     8     8     9   ar
     9     9    10   ar
    10     7    11    1
    11    11    12    1
    12    12    13    1
    13    13    18    1
    14    18    19    1
    15    19    20    1
    16    13    14    1
    17    14    15    1
    18    10     2   ar
    19    20    18    1
    20     9     4   ar
    21    15     6    1
    22     1    16    1
    23     1    17    1
@<TRIPOS>MOLECULE
*****
 20 23 0 0 0
SMALL
GASTEIGER

@<TRIPOS>ATOM
      1 N         139.1060  143.2729  171.5203 N.pl3   1  UNL1       -0.3375
      2 C         139.6964  142.6951  170.2682 C.ar    1  UNL1        0.1567
      3 N         140.1650  143.4725  169.0741 N.ar    1  UNL1       -0.2245
      4 C         140.6800  142.4963  168.0584 C.ar    1  UNL1        0.0889
      5 C         141.2665  142.6862  166.6909 C.ar    1  UNL1        0.0151
      6 C         141.7026  141.4953  165.8898 C.ar    1  UNL1       -0.0232
      7 C         141.5523  140.1147  166.4562 C.ar    1  UNL1       -0.0241
      8 C         140.9659  139.9246  167.8237 C.ar    1  UNL1        0.0035
      9 C         140.5297  141.1154  168.6248 C.ar    1  UNL1        0.0494
     10 S         139.9218  141.2384  169.9906 S.2     1  UNL1       -0.0520
     11 C         141.9202  138.8019  165.8305 C.3     1  UNL1        0.0434
     12 C         142.5293  138.5458  164.4838 C.3     1  UNL1        0.0768
     13 N         142.9208  139.5391  163.4304 N.3     1  UNL1       -0.2734
     14 C         142.8001  141.0339  163.4632 C.3     1  UNL1        0.0768
     15 C         142.2580  141.9045  164.5578 C.3     1  UNL1        0.0434
     16 H         138.9976  144.2474  171.6092 H       1  UNL1        0.1442
     17 H         138.8268  142.6777  172.2531 H       1  UNL1        0.1442
     18 C         143.5112  138.9613  162.1784 C.3     1  UNL1        0.0576
     19 C         143.9719  137.7727  161.3878 C.3     1  UNL1        0.0173
     20 C         144.0732  139.1491  160.8003 C.3     1  UNL1        0.0173
@<TRIPOS>BOND
     1     1     2    1
     2     2     3   ar
     3     3     4   ar
     4     4     5   ar
     5     5     6   ar
     6     6     7   ar
     7     7     8   ar
     8     8     9   ar
     9     9    10   ar
    10     7    11    1
    11    11    12    1
    12    12    13    1
    13    13    18    1
    14    18    19    1
    15    19    20    1
    16    13    14    1
    17    14    15    1
    18    10     2   ar
    19    20    18    1
    20     9     4   ar
    21    15     6    1
    22     1    16    1
    23     1    17    1
@<TRIPOS>MOLECULE
*****
 20 23 0 0 0
SMALL
GASTEIGER

@<TRIPOS>ATOM
      1 N         140.3583  140.2016  171.7666 N.pl3   1  UNL1       -0.3375
      2 C         140.6806  139.9987  170.3158 C.ar    1  UNL1        0.1567
      3 N         139.6937  139.9898  169.1862 N.ar    1  UNL1       -0.2245
      4 C         140.4495  139.7547  167.9121 C.ar    1  UNL1        0.0889
      5 C         140.0016  139.6472  166.4845 C.ar    1  UNL1        0.0151
      6 C         141.0078  139.4034  165.3991 C.ar    1  UNL1       -0.0232
      7 C         142.4618  139.2670  165.7412 C.ar    1  UNL1       -0.0241
      8 C         142.9098  139.3745  167.1687 C.ar    1  UNL1        0.0035
      9 C         141.9036  139.6184  168.2542 C.ar    1  UNL1        0.0494
     10 S         142.0464  139.7691  169.7397 S.2     1  UNL1       -0.0520
     11 C         143.6204  139.0233  164.8202 C.3     1  UNL1        0.0434
     12 C         143.6110  138.8559  163.3295 C.3     1  UNL1        0.0768
     13 N         142.4408  138.8908  162.3919 N.3     1  UNL1       -0.2734
     14 C         140.9909  139.1017  162.7131 C.3     1  UNL1        0.0768
     15 C         140.3531  139.3298  164.0515 C.3     1  UNL1        0.0434
     16 H         139.4260  140.3457  172.0483 H       1  UNL1        0.1442
     17 H         141.0791  140.1906  172.4372 H       1  UNL1        0.1442
     18 C         142.7631  138.6879  160.9410 C.3     1  UNL1        0.0576
     19 C         143.1977  139.2428  159.6169 C.3     1  UNL1        0.0173
     20 C         142.8867  137.7816  159.7521 C.3     1  UNL1        0.0173
@<TRIPOS>BOND
     1     1     2    1
     2     2     3   ar
     3     3     4   ar
     4     4     5   ar
     5     5     6   ar
     6     6     7   ar
     7     7     8   ar
     8     8     9   ar
     9     9    10   ar
    10     7    11    1
    11    11    12    1
    12    12    13    1
    13    13    18    1
    14    18    19    1
    15    19    20    1
    16    13    14    1
    17    14    15    1
    18    10     2   ar
    19    20    18    1
    20     9     4   ar
    21    15     6    1
    22     1    16    1
    23     1    17    1
@<TRIPOS>MOLECULE
*****
 20 23 0 0 0
SMALL
GASTEIGER

@<TRIPOS>ATOM
      1 N         142.6434  140.3227  171.8026 N.pl3   1  UNL1       -0.3375
      2 C         142.1244  140.2165  170.3992 C.ar    1  UNL1        0.1567
      3 N         142.9470  139.9550  169.1724 N.ar    1  UNL1       -0.2245
      4 C         142.0227  139.9300  167.9913 C.ar    1  UNL1        0.0889
      5 C         142.2703  139.7150  166.5275 C.ar    1  UNL1        0.0151
      6 C         141.1239  139.7461  165.5605 C.ar    1  UNL1       -0.0232
      7 C         139.7302  139.9922  166.0573 C.ar    1  UNL1       -0.0241
      8 C         139.4826  140.2072  167.5210 C.ar    1  UNL1        0.0035
      9 C         140.6289  140.1761  168.4880 C.ar    1  UNL1        0.0494
     10 S         140.6918  140.3532  169.9762 S.2     1  UNL1       -0.0520
     11 C         138.4554  140.0626  165.2699 C.3     1  UNL1        0.0434
     12 C         138.2596  139.9043  163.7911 C.3     1  UNL1        0.0768
     13 N         139.2902  139.6365  162.7347 N.3     1  UNL1       -0.2734
     14 C         140.7712  139.4608  162.8960 C.3     1  UNL1        0.0768
     15 C         141.5872  139.5096  164.1536 C.3     1  UNL1        0.0434
     16 H         143.6059  140.2177  171.9808 H       1  UNL1        0.1442
     17 H         142.0214  140.4975  172.5455 H       1  UNL1        0.1442
     18 C         138.7713  139.5303  161.3313 C.3     1  UNL1        0.0576
     19 C         137.6943  139.7941  160.3211 C.3     1  UNL1        0.0173
     20 C         138.9495  139.0825  159.9108 C.3     1  UNL1        0.0173
@<TRIPOS>BOND
     1     1     2    1
     2     2     3   ar
     3     3     4   ar
     4     4     5   ar
     5     5     6   ar
     6     6     7   ar
     7     7     8   ar
     8     8     9   ar
     9     9    10   ar
    10     7    11    1
    11    11    12    1
    12    12    13    1
    13    13    18    1
    14    18    19    1
    15    19    20    1
    16    13    14    1
    17    14    15    1
    18    10     2   ar
    19    20    18    1
    20     9     4   ar
    21    15     6    1
    22     1    16    1
    23     1    17    1
@<TRIPOS>MOLECULE
*****
 20 23 0 0 0
SMALL
GASTEIGER

@<TRIPOS>ATOM
      1 N         140.7208  140.6326  171.8416 N.pl3   1  UNL1       -0.3375
      2 C         140.4299  140.7700  170.3765 C.ar    1  UNL1        0.1567
      3 N         139.6992  139.7741  169.5254 N.ar    1  UNL1       -0.2245
      4 C         139.6364  140.3161  168.1282 C.ar    1  UNL1        0.0889
      5 C         139.0385  139.7696  166.8656 C.ar    1  UNL1        0.0151
      6 C         139.1326  140.5542  165.5905 C.ar    1  UNL1       -0.0232
      7 C         139.8244  141.8849  165.5781 C.ar    1  UNL1       -0.0241
      8 C         140.4222  142.4314  166.8405 C.ar    1  UNL1        0.0035
      9 C         140.3282  141.6470  168.1157 C.ar    1  UNL1        0.0494
     10 S         140.8186  141.9275  169.5052 S.2     1  UNL1       -0.0520
     11 C         140.0283  142.8222  164.4248 C.3     1  UNL1        0.0434
     12 C         139.5908  142.6600  162.9991 C.3     1  UNL1        0.0768
     13 N         138.8413  141.5206  162.3748 N.3     1  UNL1       -0.2734
     14 C         138.3441  140.2619  163.0217 C.3     1  UNL1        0.0768
     15 C         138.4738  139.8318  164.4529 C.3     1  UNL1        0.0434
     16 H         140.4230  139.8310  172.3295 H       1  UNL1        0.1442
     17 H         141.2095  141.3440  172.3152 H       1  UNL1        0.1442
     18 C         138.5504  141.6580  160.9097 C.3     1  UNL1        0.0576
     19 C         138.4755  142.5051  159.6740 C.3     1  UNL1        0.0173
     20 C         138.1215  141.0490  159.6077 C.3     1  UNL1        0.0173
@<TRIPOS>BOND
     1     1     2    1
     2     2     3   ar
     3     3     4   ar
     4     4     5   ar
     5     5     6   ar
     6     6     7   ar
     7     7     8   ar
     8     8     9   ar
     9     9    10   ar
    10     7    11    1
    11    11    12    1
    12    12    13    1
    13    13    18    1
    14    18    19    1
    15    19    20    1
    16    13    14    1
    17    14    15    1
    18    10     2   ar
    19    20    18    1
    20     9     4   ar
    21    15     6    1
    22     1    16    1
    23     1    17    1
@<TRIPOS>MOLECULE
*****
 20 23 0 0 0
SMALL
GASTEIGER

@<TRIPOS>ATOM
      1 N         142.3604  142.4649  171.8562 N.pl3   1  UNL1       -0.3375
      2 C         142.4879  141.9922  170.4384 C.ar    1  UNL1        0.1567
      3 N         142.8841  142.8328  169.2609 N.ar    1  UNL1       -0.2245
      4 C         142.8827  141.9560  168.0439 C.ar    1  UNL1        0.0889
      5 C         143.1917  142.2379  166.6034 C.ar    1  UNL1        0.0151
      6 C         143.1036  141.1371  165.5881 C.ar    1  UNL1       -0.0232
      7 C         142.7066  139.7547  166.0134 C.ar    1  UNL1       -0.0241
      8 C         142.3976  139.4727  167.4539 C.ar    1  UNL1        0.0035
      9 C         142.4857  140.5734  168.4692 C.ar    1  UNL1        0.0494
     10 S         142.2417  140.5958  169.9490 S.2     1  UNL1       -0.0520
     11 C         142.5588  138.5230  165.1700 C.3     1  UNL1        0.0434
     12 C         142.7715  138.3698  163.6930 C.3     1  UNL1        0.0768
     13 N         143.1845  139.4103  162.6948 N.3     1  UNL1       -0.2734
     14 C         143.4869  140.8611  162.9268 C.3     1  UNL1        0.0768
     15 C         143.4509  141.6296  164.2145 C.3     1  UNL1        0.0434
     16 H         142.5442  143.4059  172.0798 H       1  UNL1        0.1442
     17 H         142.0929  141.8342  172.5632 H       1  UNL1        0.1442
     18 C         143.3120  138.9376  161.2770 C.3     1  UNL1        0.0576
     19 C         143.6712  139.2058  159.8455 C.3     1  UNL1        0.0173
     20 C         143.1738  137.8505  160.2526 C.3     1  UNL1        0.0173
@<TRIPOS>BOND
     1     1     2    1
     2     2     3   ar
     3     3     4   ar
     4     4     5   ar
     5     5     6   ar
     6     6     7   ar
     7     7     8   ar
     8     8     9   ar
     9     9    10   ar
    10     7    11    1
    11    11    12    1
    12    12    13    1
    13    13    18    1
    14    18    19    1
    15    19    20    1
    16    13    14    1
    17    14    15    1
    18    10     2   ar
    19    20    18    1
    20     9     4   ar
    21    15     6    1
    22     1    16    1
    23     1    17    1
@<TRIPOS>MOLECULE
*****
 20 23 0 0 0
SMALL
GASTEIGER

@<TRIPOS>ATOM
      1 N         141.4563  145.3759  159.1236 N.pl3   1  UNL1       -0.3375
      2 C         141.5224  144.8702  160.5343 C.ar    1  UNL1        0.1567
      3 N         142.7517  144.3751  161.2369 N.ar    1  UNL1       -0.2245
      4 C         142.3597  143.9698  162.6268 C.ar    1  UNL1        0.0889
      5 C         143.1527  143.4096  163.7703 C.ar    1  UNL1        0.0151
      6 C         142.4740  143.0940  165.0702 C.ar    1  UNL1       -0.0232
      7 C         141.0024  143.3386  165.2267 C.ar    1  UNL1       -0.0241
      8 C         140.2094  143.8988  164.0833 C.ar    1  UNL1        0.0035
      9 C         140.8881  144.2144  162.7834 C.ar    1  UNL1        0.0494
     10 S         140.3706  144.7709  161.4901 S.2     1  UNL1       -0.0520
     11 C         140.1364  143.0958  166.4272 C.3     1  UNL1        0.0434
     12 C         140.5283  142.5483  167.7677 C.3     1  UNL1        0.0768
     13 N         141.8827  142.1086  168.2387 N.3     1  UNL1       -0.2734
     14 C         143.1800  142.1076  167.4856 C.3     1  UNL1        0.0768
     15 C         143.4432  142.5461  166.0755 C.3     1  UNL1        0.0434
     16 H         142.2712  145.4028  158.5717 H       1  UNL1        0.1442
     17 H         140.5982  145.6809  158.7497 H       1  UNL1        0.1442
     18 C         141.9487  141.6029  169.6493 C.3     1  UNL1        0.0576
     19 C         142.3155  140.5267  170.6277 C.3     1  UNL1        0.0173
     20 C         141.6963  141.8033  171.1143 C.3     1  UNL1        0.0173
@<TRIPOS>BOND
     1     1     2    1
     2     2     3   ar
     3     3     4   ar
     4     4     5   ar
     5     5     6   ar
     6     6     7   ar
     7     7     8   ar
     8     8     9   ar
     9     9    10   ar
    10     7    11    1
    11    11    12    1
    12    12    13    1
    13    13    18    1
    14    18    19    1
    15    19    20    1
    16    13    14    1
    17    14    15    1
    18    10     2   ar
    19    20    18    1
    20     9     4   ar
    21    15     6    1
    22     1    16    1
    23     1    17    1
