@<TRIPOS>MOLECULE
*****
 26 29 0 0 0
SMALL
GASTEIGER

@<TRIPOS>ATOM
      1 C         140.9793  138.5528  162.2899 C.ar    1  UNL1        0.1917
      2 N         139.7923  137.6654  162.0584 N.ar    1  UNL1       -0.1268
      3 N         138.9835  137.6345  163.3212 N.ar    1  UNL1       -0.1316
      4 C         139.6705  138.5027  164.3332 C.ar    1  UNL1        0.1615
      5 N         140.9041  139.0703  163.6958 N.ar    1  UNL1       -0.2940
      6 C         141.7994  139.9850  164.4779 C.3     1  UNL1        0.1302
      7 C         141.4612  140.3321  165.8975 C.3     1  UNL1        0.1186
      8 N         140.2276  139.7645  166.5349 N.am    1  UNL1       -0.2688
      9 C         139.8894  140.1116  167.9545 C.2     1  UNL1        0.2494
     10 O         138.6559  139.5440  168.5919 O.2     1  UNL1       -0.2699
     11 C         139.3323  138.8498  165.7527 C.3     1  UNL1        0.1343
     12 C         138.0988  138.2822  166.3901 C.3     1  UNL1        0.0298
     13 C         140.7847  141.0262  168.7366 C.ar    1  UNL1        0.0537
     14 C         140.3722  142.4467  168.9860 C.ar    1  UNL1        0.0068
     15 C         141.2676  143.3614  169.7682 C.ar    1  UNL1        0.0298
     16 C         142.5754  142.8556  170.3009 C.ar    1  UNL1        0.1401
     17 F         143.4708  143.7703  171.0831 F       1  UNL1       -0.2042
     18 C         142.9879  141.4351  170.0515 C.ar    1  UNL1        0.0298
     19 C         142.0926  140.5205  169.2694 C.ar    1  UNL1        0.0068
     20 C         143.3116  139.9448  159.5172 C.ar    1  UNL1        0.1477
     21 N         144.0992  138.7590  159.9900 N.ar    1  UNL1       -0.1929
     22 S         143.3213  138.0932  161.0863 S.2     1  UNL1        0.0369
     23 C         142.0531  138.8675  161.2909 C.ar    1  UNL1        0.1652
     24 N         142.0471  140.0119  160.3211 N.ar    1  UNL1       -0.2190
     25 C         144.3955  142.1881  158.7802 C.3     1  UNL1        0.0084
     26 C         143.7174  140.8964  158.4310 C.3     1  UNL1        0.0664
@<TRIPOS>BOND
     1    25    26    1
     2    26    20    1
     3    20    21   ar
     4    21    22   ar
     5    22    23   ar
     6    23     1    1
     7     1     2   ar
     8     2     3   ar
     9     3     4   ar
    10     4     5   ar
    11     5     6    1
    12     6     7    1
    13     7     8    1
    14     8     9   am
    15     9    10    2
    16     9    13    1
    17    13    14   ar
    18    14    15   ar
    19    15    16   ar
    20    16    17    1
    21    16    18   ar
    22    18    19   ar
    23     8    11    1
    24    11    12    1
    25    23    24   ar
    26    24    20   ar
    27     5     1   ar
    28    19    13   ar
    29    11     4    1
@<TRIPOS>MOLECULE
*****
 26 29 0 0 0
SMALL
GASTEIGER

@<TRIPOS>ATOM
      1 C         138.8271  142.1917  162.0313 C.ar    1  UNL1        0.1917
      2 N         137.8514  141.1001  161.7050 N.ar    1  UNL1       -0.1268
      3 N         137.6718  140.2569  162.9325 N.ar    1  UNL1       -0.1316
      4 C         138.5364  140.8273  164.0174 C.ar    1  UNL1        0.1615
      5 N         139.2505  142.0231  163.4604 N.ar    1  UNL1       -0.2940
      6 C         140.1939  142.8040  164.3265 C.3     1  UNL1        0.1302
      7 C         140.4233  142.3890  165.7496 C.3     1  UNL1        0.1186
      8 N         139.7093  141.1932  166.3066 N.am    1  UNL1       -0.2688
      9 C         139.9387  140.7783  167.7297 C.2     1  UNL1        0.2494
     10 O         139.2247  139.5825  168.2866 O.2     1  UNL1       -0.2699
     11 C         138.7658  140.4124  165.4404 C.3     1  UNL1        0.1343
     12 C         138.0518  139.2166  165.9974 C.3     1  UNL1        0.0298
     13 C         140.8822  141.5591  168.5957 C.ar    1  UNL1        0.0537
     14 C         140.4024  142.7885  169.3089 C.ar    1  UNL1        0.0068
     15 C         141.3460  143.5693  170.1750 C.ar    1  UNL1        0.0298
     16 C         142.7691  143.1209  170.3279 C.ar    1  UNL1        0.1401
     17 F         143.7126  143.9017  171.1940 F       1  UNL1       -0.2042
     18 C         143.2488  141.8915  169.6148 C.ar    1  UNL1        0.0298
     19 C         142.3054  141.1107  168.7487 C.ar    1  UNL1        0.0068
     20 C         139.9956  144.4257  159.0802 C.ar    1  UNL1        0.1477
     21 N         140.0443  145.4009  160.2188 N.ar    1  UNL1       -0.1929
     22 S         139.6125  144.6827  161.4630 S.2     1  UNL1        0.0369
     23 C         139.2969  143.2637  161.0932 C.ar    1  UNL1        0.1652
     24 N         139.5337  143.1048  159.6205 N.ar    1  UNL1       -0.2190
     25 C         140.3421  146.1349  157.1543 C.3     1  UNL1        0.0084
     26 C         140.3471  144.7197  157.6519 C.3     1  UNL1        0.0664
@<TRIPOS>BOND
     1    25    26    1
     2    26    20    1
     3    20    21   ar
     4    21    22   ar
     5    22    23   ar
     6    23     1    1
     7     1     2   ar
     8     2     3   ar
     9     3     4   ar
    10     4     5   ar
    11     5     6    1
    12     6     7    1
    13     7     8    1
    14     8     9   am
    15     9    10    2
    16     9    13    1
    17    13    14   ar
    18    14    15   ar
    19    15    16   ar
    20    16    17    1
    21    16    18   ar
    22    18    19   ar
    23     8    11    1
    24    11    12    1
    25    23    24   ar
    26    24    20   ar
    27     5     1   ar
    28    19    13   ar
    29    11     4    1
@<TRIPOS>MOLECULE
*****
 26 29 0 0 0
SMALL
GASTEIGER

@<TRIPOS>ATOM
      1 C         143.3944  141.1329  162.1088 C.ar    1  UNL1        0.1917
      2 N         144.2609  139.9495  161.7948 N.ar    1  UNL1       -0.1268
      3 N         144.4141  139.1414  163.0492 N.ar    1  UNL1       -0.1316
      4 C         143.6423  139.8254  164.1384 C.ar    1  UNL1        0.1615
      5 N         143.0121  141.0562  163.5572 N.ar    1  UNL1       -0.2940
      6 C         142.1715  141.9482  164.4220 C.3     1  UNL1        0.1302
      7 C         141.9611  141.6093  165.8680 C.3     1  UNL1        0.1186
      8 N         142.5914  140.3784  166.4492 N.am    1  UNL1       -0.2688
      9 C         142.3810  140.0395  167.8952 C.2     1  UNL1        0.2494
     10 O         143.0113  138.8087  168.4764 O.2     1  UNL1       -0.2699
     11 C         143.4320  139.4865  165.5844 C.3     1  UNL1        0.1343
     12 C         144.0622  138.2556  166.1656 C.3     1  UNL1        0.0298
     13 C         141.5404  140.9314  168.7599 C.ar    1  UNL1        0.0537
     14 C         142.0806  142.2515  169.2244 C.ar    1  UNL1        0.0068
     15 C         141.2399  143.1434  170.0892 C.ar    1  UNL1        0.0298
     16 C         139.8592  142.7153  170.4895 C.ar    1  UNL1        0.1401
     17 F         139.0185  143.6073  171.3543 F       1  UNL1       -0.2042
     18 C         139.3191  141.3953  170.0250 C.ar    1  UNL1        0.0298
     19 C         140.1596  140.5033  169.1603 C.ar    1  UNL1        0.0068
     20 C         141.7312  143.9828  160.0649 C.ar    1  UNL1        0.1477
     21 N         142.9659  143.7261  159.2526 N.ar    1  UNL1       -0.1929
     22 S         143.7392  142.6272  159.9195 S.2     1  UNL1        0.0369
     23 C         142.9825  142.2049  161.1438 C.ar    1  UNL1        0.1652
     24 N         141.7415  143.0426  161.2337 N.ar    1  UNL1       -0.2190
     25 C         140.1106  145.8500  160.8634 C.3     1  UNL1        0.0084
     26 C         140.6723  145.0009  159.7616 C.3     1  UNL1        0.0664
@<TRIPOS>BOND
     1    25    26    1
     2    26    20    1
     3    20    21   ar
     4    21    22   ar
     5    22    23   ar
     6    23     1    1
     7     1     2   ar
     8     2     3   ar
     9     3     4   ar
    10     4     5   ar
    11     5     6    1
    12     6     7    1
    13     7     8    1
    14     8     9   am
    15     9    10    2
    16     9    13    1
    17    13    14   ar
    18    14    15   ar
    19    15    16   ar
    20    16    17    1
    21    16    18   ar
    22    18    19   ar
    23     8    11    1
    24    11    12    1
    25    23    24   ar
    26    24    20   ar
    27     5     1   ar
    28    19    13   ar
    29    11     4    1
@<TRIPOS>MOLECULE
*****
 26 29 0 0 0
SMALL
GASTEIGER

@<TRIPOS>ATOM
      1 C         142.6878  143.3650  160.6402 C.ar    1  UNL1        0.1917
      2 N         144.1759  143.2766  160.4736 N.ar    1  UNL1       -0.1268
      3 N         144.6905  142.2521  161.4409 N.ar    1  UNL1       -0.1316
      4 C         143.5204  141.7073  162.2052 C.ar    1  UNL1        0.1615
      5 N         142.2827  142.3952  161.7103 N.ar    1  UNL1       -0.2940
      6 C         140.9467  142.0495  162.2981 C.3     1  UNL1        0.1302
      7 C         140.8483  141.0159  163.3808 C.3     1  UNL1        0.1186
      8 N         142.0860  140.3281  163.8757 N.am    1  UNL1       -0.2688
      9 C         141.9878  139.2946  164.9583 C.2     1  UNL1        0.2494
     10 O         143.2255  138.6067  165.4531 O.2     1  UNL1       -0.2699
     11 C         143.4221  140.6738  163.2878 C.3     1  UNL1        0.1343
     12 C         144.6599  139.9859  163.7827 C.3     1  UNL1        0.0298
     13 C         140.6517  138.9489  165.5460 C.ar    1  UNL1        0.0537
     14 C         139.8512  137.8165  164.9744 C.ar    1  UNL1        0.0068
     15 C         138.5151  137.4709  165.5622 C.ar    1  UNL1        0.0298
     16 C         137.9796  138.2576  166.7216 C.ar    1  UNL1        0.1401
     17 F         136.6435  137.9119  167.3095 F       1  UNL1       -0.2042
     18 C         138.7802  139.3900  167.2933 C.ar    1  UNL1        0.0298
     19 C         140.1162  139.7356  166.7055 C.ar    1  UNL1        0.0068
     20 C         140.7314  145.5053  158.0601 C.ar    1  UNL1        0.1477
     21 N         139.9664  145.7960  159.3172 N.ar    1  UNL1       -0.1929
     22 S         140.6063  145.0296  160.4368 S.2     1  UNL1        0.0369
     23 C         141.7666  144.2653  159.8715 C.ar    1  UNL1        0.1652
     24 N         141.8439  144.5592  158.4026 N.ar    1  UNL1       -0.2190
     25 C         139.3155  147.0438  156.5179 C.3     1  UNL1        0.0084
     26 C         140.4356  146.0627  156.6993 C.3     1  UNL1        0.0664
@<TRIPOS>BOND
     1    25    26    1
     2    26    20    1
     3    20    21   ar
     4    21    22   ar
     5    22    23   ar
     6    23     1    1
     7     1     2   ar
     8     2     3   ar
     9     3     4   ar
    10     4     5   ar
    11     5     6    1
    12     6     7    1
    13     7     8    1
    14     8     9   am
    15     9    10    2
    16     9    13    1
    17    13    14   ar
    18    14    15   ar
    19    15    16   ar
    20    16    17    1
    21    16    18   ar
    22    18    19   ar
    23     8    11    1
    24    11    12    1
    25    23    24   ar
    26    24    20   ar
    27     5     1   ar
    28    19    13   ar
    29    11     4    1
@<TRIPOS>MOLECULE
*****
 26 29 0 0 0
SMALL
GASTEIGER

@<TRIPOS>ATOM
      1 C         142.8909  143.3942  158.7411 C.ar    1  UNL1        0.1917
      2 N         142.5993  144.7499  158.1692 N.ar    1  UNL1       -0.1268
      3 N         141.7101  145.4781  159.1330 N.ar    1  UNL1       -0.1316
      4 C         141.4521  144.5725  160.3006 C.ar    1  UNL1        0.1615
      5 N         142.1819  143.2846  160.0584 N.ar    1  UNL1       -0.2940
      6 C         142.1066  142.1784  161.0686 C.3     1  UNL1        0.1302
      7 C         141.3014  142.3601  162.3212 C.3     1  UNL1        0.1186
      8 N         140.5716  143.6480  162.5634 N.am    1  UNL1       -0.2688
      9 C         139.7665  143.8297  163.8159 C.2     1  UNL1        0.2494
     10 O         139.0367  145.1177  164.0581 O.2     1  UNL1       -0.2699
     11 C         140.6470  144.7542  161.5531 C.3     1  UNL1        0.1343
     12 C         139.9172  146.0422  161.7953 C.3     1  UNL1        0.0298
     13 C         139.6912  142.7236  164.8261 C.ar    1  UNL1        0.0537
     14 C         140.5512  142.7695  166.0542 C.ar    1  UNL1        0.0068
     15 C         140.4759  141.6632  167.0644 C.ar    1  UNL1        0.0298
     16 C         139.5404  140.5111  166.8466 C.ar    1  UNL1        0.1401
     17 F         139.4651  139.4048  167.8569 F       1  UNL1       -0.2042
     18 C         138.6804  140.4651  165.6185 C.ar    1  UNL1        0.0298
     19 C         138.7557  141.5713  164.6083 C.ar    1  UNL1        0.0068
     20 C         145.4052  141.2279  156.7284 C.ar    1  UNL1        0.1477
     21 N         144.6986  140.1784  157.5342 N.ar    1  UNL1       -0.1929
     22 S         143.6707  140.8622  158.3863 S.2     1  UNL1        0.0369
     23 C         143.7421  142.3343  158.1070 C.ar    1  UNL1        0.1652
     24 N         144.8140  142.5603  157.0824 N.ar    1  UNL1       -0.2190
     25 C         147.1556  142.1460  155.0422 C.3     1  UNL1        0.0084
     26 C         146.5091  140.9873  155.7418 C.3     1  UNL1        0.0664
@<TRIPOS>BOND
     1    25    26    1
     2    26    20    1
     3    20    21   ar
     4    21    22   ar
     5    22    23   ar
     6    23     1    1
     7     1     2   ar
     8     2     3   ar
     9     3     4   ar
    10     4     5   ar
    11     5     6    1
    12     6     7    1
    13     7     8    1
    14     8     9   am
    15     9    10    2
    16     9    13    1
    17    13    14   ar
    18    14    15   ar
    19    15    16   ar
    20    16    17    1
    21    16    18   ar
    22    18    19   ar
    23     8    11    1
    24    11    12    1
    25    23    24   ar
    26    24    20   ar
    27     5     1   ar
    28    19    13   ar
    29    11     4    1
@<TRIPOS>MOLECULE
*****
 26 29 0 0 0
SMALL
GASTEIGER

@<TRIPOS>ATOM
      1 C         139.3200  139.7450  167.4834 C.ar    1  UNL1        0.1917
      2 N         138.1881  138.7661  167.5857 N.ar    1  UNL1       -0.1268
      3 N         137.9590  138.1785  166.2247 N.ar    1  UNL1       -0.1316
      4 C         138.9493  138.7942  165.2813 C.ar    1  UNL1        0.1615
      5 N         139.7905  139.7624  166.0592 N.ar    1  UNL1       -0.2940
      6 C         140.8761  140.5348  165.3702 C.3     1  UNL1        0.1302
      7 C         141.1207  140.3390  163.9032 C.3     1  UNL1        0.1186
      8 N         140.2796  139.3708  163.1253 N.am    1  UNL1       -0.2688
      9 C         140.5241  139.1750  161.6584 C.2     1  UNL1        0.2494
     10 O         139.6830  138.2068  160.8805 O.2     1  UNL1       -0.2699
     11 C         139.1939  138.5984  163.8144 C.3     1  UNL1        0.1343
     12 C         138.3527  137.6302  163.0365 C.3     1  UNL1        0.0298
     13 C         141.6097  139.9473  160.9694 C.ar    1  UNL1        0.0537
     14 C         141.3173  141.3010  160.3932 C.ar    1  UNL1        0.0068
     15 C         142.4030  142.0734  159.7042 C.ar    1  UNL1        0.0298
     16 C         143.7811  141.4921  159.5914 C.ar    1  UNL1        0.1401
     17 F         144.8669  142.2644  158.9024 F       1  UNL1       -0.2042
     18 C         144.0736  140.1384  160.1676 C.ar    1  UNL1        0.0298
     19 C         142.9880  139.3660  160.8566 C.ar    1  UNL1        0.0068
     20 C         141.3368  142.0048  169.9105 C.ar    1  UNL1        0.1477
     21 N         140.1602  141.6386  170.7658 N.ar    1  UNL1       -0.1929
     22 S         139.2614  140.7474  169.9606 S.2     1  UNL1        0.0369
     23 C         139.8826  140.5630  168.6078 C.ar    1  UNL1        0.1652
     24 N         141.1653  141.3400  168.5768 N.ar    1  UNL1       -0.2190
     25 C         143.8826  142.5239  169.9111 C.3     1  UNL1        0.0084
     26 C         142.4837  142.8817  170.3175 C.3     1  UNL1        0.0664
@<TRIPOS>BOND
     1    25    26    1
     2    26    20    1
     3    20    21   ar
     4    21    22   ar
     5    22    23   ar
     6    23     1    1
     7     1     2   ar
     8     2     3   ar
     9     3     4   ar
    10     4     5   ar
    11     5     6    1
    12     6     7    1
    13     7     8    1
    14     8     9   am
    15     9    10    2
    16     9    13    1
    17    13    14   ar
    18    14    15   ar
    19    15    16   ar
    20    16    17    1
    21    16    18   ar
    22    18    19   ar
    23     8    11    1
    24    11    12    1
    25    23    24   ar
    26    24    20   ar
    27     5     1   ar
    28    19    13   ar
    29    11     4    1
@<TRIPOS>MOLECULE
*****
 26 29 0 0 0
SMALL
GASTEIGER

@<TRIPOS>ATOM
      1 C         140.8323  141.0988  161.4866 C.ar    1  UNL1        0.1917
      2 N         139.7905  140.0978  161.0833 N.ar    1  UNL1       -0.1268
      3 N         139.1771  139.5384  162.3326 N.ar    1  UNL1       -0.1316
      4 C         139.8398  140.1936  163.5080 C.ar    1  UNL1        0.1615
      5 N         140.8628  141.1580  162.9851 N.ar    1  UNL1       -0.2940
      6 C         141.6899  141.9654  163.9411 C.3     1  UNL1        0.1302
      7 C         141.4940  141.8086  165.4200 C.3     1  UNL1        0.1186
      8 N         140.4710  140.8442  165.9429 N.am    1  UNL1       -0.2688
      9 C         140.2751  140.6873  167.4217 C.2     1  UNL1        0.2494
     10 O         139.2520  139.7230  167.9446 O.2     1  UNL1       -0.2699
     11 C         139.6438  140.0367  164.9868 C.3     1  UNL1        0.1343
     12 C         138.6208  139.0724  165.5097 C.3     1  UNL1        0.0298
     13 C         141.1022  141.4948  168.3776 C.ar    1  UNL1        0.0537
     14 C         142.5109  141.0812  168.6849 C.ar    1  UNL1        0.0068
     15 C         143.3381  141.8887  169.6409 C.ar    1  UNL1        0.0298
     16 C         142.7564  143.1097  170.2895 C.ar    1  UNL1        0.1401
     17 F         143.5836  143.9172  171.2455 F       1  UNL1       -0.2042
     18 C         141.3477  143.5233  169.9823 C.ar    1  UNL1        0.0298
     19 C         140.5206  142.7158  169.0263 C.ar    1  UNL1        0.0068
     20 C         143.2276  142.5021  158.7739 C.ar    1  UNL1        0.1477
     21 N         142.8058  143.7630  159.4685 N.ar    1  UNL1       -0.1929
     22 S         141.8572  143.3907  160.5692 S.2     1  UNL1        0.0369
     23 C         141.6927  141.8999  160.5549 C.ar    1  UNL1        0.1652
     24 N         142.5397  141.3507  159.4454 N.ar    1  UNL1       -0.2190
     25 C         145.6506  142.5196  157.8365 C.3     1  UNL1        0.0084
     26 C         144.1716  142.4091  157.6120 C.3     1  UNL1        0.0664
@<TRIPOS>BOND
     1    25    26    1
     2    26    20    1
     3    20    21   ar
     4    21    22   ar
     5    22    23   ar
     6    23     1    1
     7     1     2   ar
     8     2     3   ar
     9     3     4   ar
    10     4     5   ar
    11     5     6    1
    12     6     7    1
    13     7     8    1
    14     8     9   am
    15     9    10    2
    16     9    13    1
    17    13    14   ar
    18    14    15   ar
    19    15    16   ar
    20    16    17    1
    21    16    18   ar
    22    18    19   ar
    23     8    11    1
    24    11    12    1
    25    23    24   ar
    26    24    20   ar
    27     5     1   ar
    28    19    13   ar
    29    11     4    1
@<TRIPOS>MOLECULE
*****
 26 29 0 0 0
SMALL
GASTEIGER

@<TRIPOS>ATOM
      1 C         142.9040  138.3424  157.7111 C.ar    1  UNL1        0.1917
      2 N         144.0053  139.2454  157.2403 N.ar    1  UNL1       -0.1268
      3 N         144.2148  140.3034  158.2827 N.ar    1  UNL1       -0.1316
      4 C         143.2429  140.0544  159.3978 C.ar    1  UNL1        0.1615
      5 N         142.4328  138.8424  159.0446 N.ar    1  UNL1       -0.2940
      6 C         141.3707  138.3506  159.9827 C.3     1  UNL1        0.1302
      7 C         141.1187  139.0708  161.2742 C.3     1  UNL1        0.1186
      8 N         141.9288  140.2828  161.6274 N.am    1  UNL1       -0.2688
      9 C         141.6768  141.0031  162.9188 C.2     1  UNL1        0.2494
     10 O         142.4870  142.2150  163.2721 O.2     1  UNL1       -0.2699
     11 C         142.9909  140.7746  160.6892 C.3     1  UNL1        0.1343
     12 C         143.8010  141.9866  161.0425 C.3     1  UNL1        0.0298
     13 C         140.6148  140.5113  163.8570 C.ar    1  UNL1        0.0537
     14 C         139.2015  140.9911  163.7076 C.ar    1  UNL1        0.0068
     15 C         138.1394  140.4993  164.6458 C.ar    1  UNL1        0.0298
     16 C         138.4906  139.5277  165.7333 C.ar    1  UNL1        0.1401
     17 F         137.4285  139.0359  166.6715 F       1  UNL1       -0.2042
     18 C         139.9039  139.0479  165.8826 C.ar    1  UNL1        0.0298
     19 C         140.9660  139.5396  164.9445 C.ar    1  UNL1        0.0068
     20 C         142.0853  134.8870  156.1443 C.ar    1  UNL1        0.1477
     21 N         141.0010  135.7379  155.5523 N.ar    1  UNL1       -0.1929
     22 S         141.1757  137.1359  156.0672 S.2     1  UNL1        0.0369
     23 C         142.3680  137.1490  156.9774 C.ar    1  UNL1        0.1652
     24 N         142.9301  135.7591  157.0250 N.ar    1  UNL1       -0.2190
     25 C         141.3116  132.6597  155.0531 C.3     1  UNL1        0.0084
     26 C         142.2889  133.4214  155.8986 C.3     1  UNL1        0.0664
@<TRIPOS>BOND
     1    25    26    1
     2    26    20    1
     3    20    21   ar
     4    21    22   ar
     5    22    23   ar
     6    23     1    1
     7     1     2   ar
     8     2     3   ar
     9     3     4   ar
    10     4     5   ar
    11     5     6    1
    12     6     7    1
    13     7     8    1
    14     8     9   am
    15     9    10    2
    16     9    13    1
    17    13    14   ar
    18    14    15   ar
    19    15    16   ar
    20    16    17    1
    21    16    18   ar
    22    18    19   ar
    23     8    11    1
    24    11    12    1
    25    23    24   ar
    26    24    20   ar
    27     5     1   ar
    28    19    13   ar
    29    11     4    1
@<TRIPOS>MOLECULE
*****
 26 29 0 0 0
SMALL
GASTEIGER

@<TRIPOS>ATOM
      1 C         138.5515  141.8774  157.4756 C.ar    1  UNL1        0.1917
      2 N         139.7452  142.6089  156.9373 N.ar    1  UNL1       -0.1268
      3 N         140.8053  142.6103  157.9986 N.ar    1  UNL1       -0.1316
      4 C         140.2667  141.8797  159.1928 C.ar    1  UNL1        0.1615
      5 N         138.8737  141.4267  158.8696 N.ar    1  UNL1       -0.2940
      6 C         138.0788  140.6624  159.8863 C.3     1  UNL1        0.1302
      7 C         138.6767  140.3510  161.2263 C.3     1  UNL1        0.1186
      8 N         140.0697  140.8040  161.5495 N.am    1  UNL1       -0.2688
      9 C         140.6677  140.4926  162.8894 C.2     1  UNL1        0.2494
     10 O         142.0606  140.9456  163.2126 O.2     1  UNL1       -0.2699
     11 C         140.8647  141.5683  160.5327 C.3     1  UNL1        0.1343
     12 C         142.2576  142.0213  160.8559 C.3     1  UNL1        0.0298
     13 C         139.8727  139.7283  163.9061 C.ar    1  UNL1        0.0537
     14 C         139.9761  138.2332  163.9695 C.ar    1  UNL1        0.0068
     15 C         139.1810  137.4689  164.9863 C.ar    1  UNL1        0.0298
     16 C         138.2827  138.1996  165.9396 C.ar    1  UNL1        0.1401
     17 F         137.4876  137.4353  166.9564 F       1  UNL1       -0.2042
     18 C         138.1793  139.6947  165.8763 C.ar    1  UNL1        0.0298
     19 C         138.9743  140.4590  164.8595 C.ar    1  UNL1        0.0068
     20 C         135.1509  140.6644  156.0507 C.ar    1  UNL1        0.1477
     21 N         135.4035  141.8772  155.2049 N.ar    1  UNL1       -0.1929
     22 S         136.7082  142.4792  155.6358 S.2     1  UNL1        0.0369
     23 C         137.2618  141.6385  156.7478 C.ar    1  UNL1        0.1652
     24 N         136.2994  140.5169  157.0043 N.ar    1  UNL1       -0.2190
     25 C         132.6370  140.1995  156.5137 C.3     1  UNL1        0.0084
     26 C         133.9591  139.7583  155.9591 C.3     1  UNL1        0.0664
@<TRIPOS>BOND
     1    25    26    1
     2    26    20    1
     3    20    21   ar
     4    21    22   ar
     5    22    23   ar
     6    23     1    1
     7     1     2   ar
     8     2     3   ar
     9     3     4   ar
    10     4     5   ar
    11     5     6    1
    12     6     7    1
    13     7     8    1
    14     8     9   am
    15     9    10    2
    16     9    13    1
    17    13    14   ar
    18    14    15   ar
    19    15    16   ar
    20    16    17    1
    21    16    18   ar
    22    18    19   ar
    23     8    11    1
    24    11    12    1
    25    23    24   ar
    26    24    20   ar
    27     5     1   ar
    28    19    13   ar
    29    11     4    1
