@<TRIPOS>MOLECULE
*****
 28 30 0 0 0
SMALL
GASTEIGER

@<TRIPOS>ATOM
      1 C         141.1497  141.7222  171.2620 C.3     1  UNL1        0.0896
      2 N         141.4310  141.8717  169.7962 N.3     1  UNL1       -0.2715
      3 C         142.6410  141.2208  169.1945 C.3     1  UNL1        0.0725
      4 C         142.9223  141.3702  167.7287 C.3     1  UNL1        0.0239
      5 C         141.9936  142.1706  166.8646 C.3     1  UNL1        0.0511
      6 C         140.7835  142.8215  167.4663 C.3     1  UNL1        0.0239
      7 C         140.5022  142.6720  168.9320 C.3     1  UNL1        0.0725
      8 C         143.0029  141.7465  165.8391 C.ar    1  UNL1        0.0071
      9 C         144.0477  142.7150  165.3698 C.ar    1  UNL1       -0.0020
     10 C         145.0569  142.2910  164.3444 C.ar    1  UNL1       -0.0002
     11 C         145.0213  140.8984  163.7883 C.ar    1  UNL1        0.0023
     12 C         143.9765  139.9298  164.2575 C.ar    1  UNL1        0.0293
     13 C         142.9672  140.3539  165.2830 C.ar    1  UNL1        0.1362
     14 F         141.9224  139.3854  165.7522 F       1  UNL1       -0.2045
     15 C         141.4153  142.8237  165.6443 C.3     1  UNL1        0.1467
     16 O         139.9297  142.9833  165.5118 O.3     1  UNL1       -0.3470
     17 C         139.1861  142.2291  164.4496 C.3     1  UNL1        0.1875
     18 C         139.1640  140.7294  164.4708 C.ar    1  UNL1        0.0897
     19 C         138.4486  140.0054  165.5727 C.ar    1  UNL1        0.0212
     20 C         138.4265  138.5058  165.5939 C.ar    1  UNL1        0.0750
     21 C         139.1196  137.7300  164.5133 C.ar    1  UNL1        0.0346
     22 C         139.8349  138.4540  163.4113 C.ar    1  UNL1        0.1380
     23 CL        140.5281  137.6783  162.3307 Cl      1  UNL1       -0.0614
     24 N         139.8571  139.9537  163.3901 N.ar    1  UNL1       -0.2358
     25 C         137.7111  137.7817  166.6958 C.3     1  UNL1        0.4187
     26 F         136.9959  137.0577  167.7977 F       1  UNL1       -0.1659
     27 F         137.4491  139.0884  167.3842 F       1  UNL1       -0.1659
     28 F         137.9733  136.4751  166.0074 F       1  UNL1       -0.1659
@<TRIPOS>BOND
     1     1     2    1
     2     2     3    1
     3     3     4    1
     4     4     5    1
     5     5    15    1
     6    15    16    1
     7    16    17    1
     8    17    18    1
     9    18    19   ar
    10    19    20   ar
    11    20    25    1
    12    25    26    1
    13    25    27    1
    14    25    28    1
    15    20    21   ar
    16    21    22   ar
    17    22    23    1
    18    22    24   ar
    19     5     8    1
    20     8     9   ar
    21     9    10   ar
    22    10    11   ar
    23    11    12   ar
    24    12    13   ar
    25    13    14    1
    26     5     6    1
    27     6     7    1
    28     7     2    1
    29    24    18   ar
    30    13     8   ar
@<TRIPOS>MOLECULE
*****
 28 30 0 0 0
SMALL
GASTEIGER

@<TRIPOS>ATOM
      1 C         145.3179  141.8295  162.9371 C.3     1  UNL1        0.0896
      2 N         144.4617  141.6184  164.1505 N.3     1  UNL1       -0.2715
      3 C         144.2843  142.7268  165.1454 C.3     1  UNL1        0.0725
      4 C         143.4282  142.5157  166.3588 C.3     1  UNL1        0.0239
      5 C         142.7493  141.1961  166.5773 C.3     1  UNL1        0.0511
      6 C         142.9267  140.0877  165.5824 C.3     1  UNL1        0.0239
      7 C         143.7828  140.2988  164.3690 C.3     1  UNL1        0.0725
      8 C         142.2796  141.9355  167.7950 C.ar    1  UNL1        0.0071
      9 C         143.1176  141.9408  169.0390 C.ar    1  UNL1       -0.0020
     10 C         142.6479  142.6801  170.2567 C.ar    1  UNL1       -0.0002
     11 C         141.3401  143.4141  170.2303 C.ar    1  UNL1        0.0023
     12 C         140.5019  143.4088  168.9863 C.ar    1  UNL1        0.0293
     13 C         140.9717  142.6695  167.7686 C.ar    1  UNL1        0.1362
     14 F         140.1336  142.6641  166.5247 F       1  UNL1       -0.2045
     15 C         141.9073  140.1332  167.2188 C.3     1  UNL1        0.1467
     16 O         141.0808  139.2157  166.3673 O.3     1  UNL1       -0.3470
     17 C         139.5931  139.3948  166.2971 C.3     1  UNL1        0.1875
     18 C         138.9473  139.8061  165.0073 C.ar    1  UNL1        0.0897
     19 C         138.5837  141.2428  164.7753 C.ar    1  UNL1        0.0212
     20 C         137.9379  141.6541  163.4855 C.ar    1  UNL1        0.0750
     21 C         137.6555  140.6288  162.4277 C.ar    1  UNL1        0.0346
     22 C         138.0190  139.1921  162.6597 C.ar    1  UNL1        0.1380
     23 CL        137.7367  138.1668  161.6019 Cl      1  UNL1       -0.0614
     24 N         138.6649  138.7807  163.9495 N.ar    1  UNL1       -0.2358
     25 C         137.5743  143.0908  163.2534 C.3     1  UNL1        0.4187
     26 F         137.2108  144.5274  163.0214 F       1  UNL1       -0.1659
     27 F         137.5231  143.3172  164.7354 F       1  UNL1       -0.1659
     28 F         137.6256  142.8643  161.7715 F       1  UNL1       -0.1659
@<TRIPOS>BOND
     1     1     2    1
     2     2     3    1
     3     3     4    1
     4     4     5    1
     5     5    15    1
     6    15    16    1
     7    16    17    1
     8    17    18    1
     9    18    19   ar
    10    19    20   ar
    11    20    25    1
    12    25    26    1
    13    25    27    1
    14    25    28    1
    15    20    21   ar
    16    21    22   ar
    17    22    23    1
    18    22    24   ar
    19     5     8    1
    20     8     9   ar
    21     9    10   ar
    22    10    11   ar
    23    11    12   ar
    24    12    13   ar
    25    13    14    1
    26     5     6    1
    27     6     7    1
    28     7     2    1
    29    24    18   ar
    30    13     8   ar
@<TRIPOS>MOLECULE
*****
 28 30 0 0 0
SMALL
GASTEIGER

@<TRIPOS>ATOM
      1 C         138.0923  143.9666  163.7517 C.3     1  UNL1        0.0896
      2 N         138.5864  142.7888  164.5382 N.3     1  UNL1       -0.2715
      3 C         139.5730  142.9900  165.6500 C.3     1  UNL1        0.0725
      4 C         140.0672  141.8122  166.4365 C.3     1  UNL1        0.0239
      5 C         139.5748  140.4332  166.1112 C.3     1  UNL1        0.0511
      6 C         138.5882  140.2320  164.9994 C.3     1  UNL1        0.0239
      7 C         138.0941  141.4098  164.2129 C.3     1  UNL1        0.0725
      8 C         140.5023  140.1174  167.2471 C.ar    1  UNL1        0.0071
      9 C         141.9614  139.8912  166.9832 C.ar    1  UNL1       -0.0020
     10 C         142.8889  139.5754  168.1190 C.ar    1  UNL1       -0.0002
     11 C         142.3571  139.4858  169.5187 C.ar    1  UNL1        0.0023
     12 C         140.8980  139.7120  169.7826 C.ar    1  UNL1        0.0293
     13 C         139.9705  140.0278  168.6468 C.ar    1  UNL1        0.1362
     14 F         138.5114  140.2540  168.9107 F       1  UNL1       -0.2045
     15 C         139.4045  138.9444  166.1804 C.3     1  UNL1        0.1467
     16 O         139.3830  138.1327  164.9192 O.3     1  UNL1       -0.3470
     17 C         140.5544  137.2649  164.5658 C.3     1  UNL1        0.1875
     18 C         141.6076  137.7729  163.6263 C.ar    1  UNL1        0.0897
     19 C         142.7283  138.6241  164.1454 C.ar    1  UNL1        0.0212
     20 C         143.7814  139.1321  163.2058 C.ar    1  UNL1        0.0750
     21 C         143.7140  138.7889  161.7472 C.ar    1  UNL1        0.0346
     22 C         142.5933  137.9376  161.2281 C.ar    1  UNL1        0.1380
     23 CL        142.5258  137.5944  159.7694 Cl      1  UNL1       -0.0614
     24 N         141.5401  137.4296  162.1676 N.ar    1  UNL1       -0.2358
     25 C         144.9022  139.9834  163.7249 C.3     1  UNL1        0.4187
     26 F         146.0229  140.8346  164.2438 F       1  UNL1       -0.1659
     27 F         145.0723  140.5895  162.3633 F       1  UNL1       -0.1659
     28 F         144.7321  139.3772  165.0863 F       1  UNL1       -0.1659
@<TRIPOS>BOND
     1     1     2    1
     2     2     3    1
     3     3     4    1
     4     4     5    1
     5     5    15    1
     6    15    16    1
     7    16    17    1
     8    17    18    1
     9    18    19   ar
    10    19    20   ar
    11    20    25    1
    12    25    26    1
    13    25    27    1
    14    25    28    1
    15    20    21   ar
    16    21    22   ar
    17    22    23    1
    18    22    24   ar
    19     5     8    1
    20     8     9   ar
    21     9    10   ar
    22    10    11   ar
    23    11    12   ar
    24    12    13   ar
    25    13    14    1
    26     5     6    1
    27     6     7    1
    28     7     2    1
    29    24    18   ar
    30    13     8   ar
@<TRIPOS>MOLECULE
*****
 28 30 0 0 0
SMALL
GASTEIGER

@<TRIPOS>ATOM
      1 C         140.6748  140.5230  170.4931 C.3     1  UNL1        0.0896
      2 N         141.3336  140.7796  169.1702 N.3     1  UNL1       -0.2715
      3 C         141.1126  142.0836  168.4627 C.3     1  UNL1        0.0725
      4 C         141.7714  142.3403  167.1398 C.3     1  UNL1        0.0239
      5 C         142.6513  141.2929  166.5244 C.3     1  UNL1        0.0511
      6 C         142.8723  139.9889  167.2319 C.3     1  UNL1        0.0239
      7 C         142.2135  139.7322  168.5548 C.3     1  UNL1        0.0725
      8 C         142.7474  142.3622  165.4768 C.ar    1  UNL1        0.0071
      9 C         143.9178  143.3001  165.4676 C.ar    1  UNL1       -0.0020
     10 C         144.0140  144.3694  164.4201 C.ar    1  UNL1       -0.0002
     11 C         142.9396  144.5007  163.3816 C.ar    1  UNL1        0.0023
     12 C         141.7691  143.5627  163.3907 C.ar    1  UNL1        0.0293
     13 C         141.6730  142.4934  164.4383 C.ar    1  UNL1        0.1362
     14 F         140.5025  141.5555  164.4474 F       1  UNL1       -0.2045
     15 C         143.5645  140.6168  165.5451 C.3     1  UNL1        0.1467
     16 O         143.5342  139.1243  165.3985 O.3     1  UNL1       -0.3470
     17 C         143.0301  138.5056  164.1284 C.3     1  UNL1        0.1875
     18 C         141.5546  138.3852  163.8869 C.ar    1  UNL1        0.0897
     19 C         140.6036  138.3703  165.0468 C.ar    1  UNL1        0.0212
     20 C         139.1281  138.2499  164.8053 C.ar    1  UNL1        0.0750
     21 C         138.6035  138.1444  163.4040 C.ar    1  UNL1        0.0346
     22 C         139.5546  138.1593  162.2441 C.ar    1  UNL1        0.1380
     23 CL        139.0300  138.0537  160.8428 Cl      1  UNL1       -0.0614
     24 N         141.0301  138.2797  162.4855 N.ar    1  UNL1       -0.2358
     25 C         138.1769  138.2351  165.9652 C.3     1  UNL1        0.4187
     26 F         137.2259  138.2202  167.1250 F       1  UNL1       -0.1659
     27 F         138.1934  136.7351  165.9594 F       1  UNL1       -0.1659
     28 F         138.1605  139.7350  165.9709 F       1  UNL1       -0.1659
@<TRIPOS>BOND
     1     1     2    1
     2     2     3    1
     3     3     4    1
     4     4     5    1
     5     5    15    1
     6    15    16    1
     7    16    17    1
     8    17    18    1
     9    18    19   ar
    10    19    20   ar
    11    20    25    1
    12    25    26    1
    13    25    27    1
    14    25    28    1
    15    20    21   ar
    16    21    22   ar
    17    22    23    1
    18    22    24   ar
    19     5     8    1
    20     8     9   ar
    21     9    10   ar
    22    10    11   ar
    23    11    12   ar
    24    12    13   ar
    25    13    14    1
    26     5     6    1
    27     6     7    1
    28     7     2    1
    29    24    18   ar
    30    13     8   ar
@<TRIPOS>MOLECULE
*****
 28 30 0 0 0
SMALL
GASTEIGER

@<TRIPOS>ATOM
      1 C         142.6188  137.5013  156.9529 C.3     1  UNL1        0.0896
      2 N         142.0628  137.8200  158.3092 N.3     1  UNL1       -0.2715
      3 C         142.8832  137.5563  159.5369 C.3     1  UNL1        0.0725
      4 C         142.3273  137.8751  160.8932 C.3     1  UNL1        0.0239
      5 C         140.9510  138.4575  161.0216 C.3     1  UNL1        0.0511
      6 C         140.1306  138.7212  159.7939 C.3     1  UNL1        0.0239
      7 C         140.6866  138.4025  158.4377 C.3     1  UNL1        0.0725
      8 C         141.3404  138.3876  162.4686 C.ar    1  UNL1        0.0071
      9 C         140.9650  137.1896  163.2893 C.ar    1  UNL1       -0.0020
     10 C         141.3543  137.1196  164.7362 C.ar    1  UNL1       -0.0002
     11 C         142.1191  138.2479  165.3623 C.ar    1  UNL1        0.0023
     12 C         142.4945  139.4461  164.5417 C.ar    1  UNL1        0.0293
     13 C         142.1052  139.5159  163.0947 C.ar    1  UNL1        0.1362
     14 F         142.4805  140.7140  162.2740 F       1  UNL1       -0.2045
     15 C         139.7099  139.0157  161.6526 C.3     1  UNL1        0.1467
     16 O         139.3700  140.4668  161.4833 O.3     1  UNL1       -0.3470
     17 C         138.6158  141.1909  162.5589 C.3     1  UNL1        0.1875
     18 C         138.8667  140.8636  164.0011 C.ar    1  UNL1        0.0897
     19 C         138.2432  139.6441  164.6129 C.ar    1  UNL1        0.0212
     20 C         138.4941  139.3169  166.0550 C.ar    1  UNL1        0.0750
     21 C         139.3685  140.2089  166.8855 C.ar    1  UNL1        0.0346
     22 C         139.9920  141.4284  166.2737 C.ar    1  UNL1        0.1380
     23 CL        140.8664  142.3204  167.1042 Cl      1  UNL1       -0.0614
     24 N         139.7411  141.7557  164.8315 N.ar    1  UNL1       -0.2358
     25 C         137.8706  138.0974  166.6669 C.3     1  UNL1        0.4187
     26 F         137.2472  136.8780  167.2786 F       1  UNL1       -0.1659
     27 F         138.2140  137.3062  165.4396 F       1  UNL1       -0.1659
     28 F         137.5273  138.8887  167.8941 F       1  UNL1       -0.1659
@<TRIPOS>BOND
     1     1     2    1
     2     2     3    1
     3     3     4    1
     4     4     5    1
     5     5    15    1
     6    15    16    1
     7    16    17    1
     8    17    18    1
     9    18    19   ar
    10    19    20   ar
    11    20    25    1
    12    25    26    1
    13    25    27    1
    14    25    28    1
    15    20    21   ar
    16    21    22   ar
    17    22    23    1
    18    22    24   ar
    19     5     8    1
    20     8     9   ar
    21     9    10   ar
    22    10    11   ar
    23    11    12   ar
    24    12    13   ar
    25    13    14    1
    26     5     6    1
    27     6     7    1
    28     7     2    1
    29    24    18   ar
    30    13     8   ar
@<TRIPOS>MOLECULE
*****
 28 30 0 0 0
SMALL
GASTEIGER

@<TRIPOS>ATOM
      1 C         140.9959  145.1952  163.0825 C.3     1  UNL1        0.0896
      2 N         141.1352  144.2273  164.2199 N.3     1  UNL1       -0.2715
      3 C         139.9458  143.8938  165.0708 C.3     1  UNL1        0.0725
      4 C         140.0851  142.9259  166.2083 C.3     1  UNL1        0.0239
      5 C         141.4137  142.2916  166.4949 C.3     1  UNL1        0.0511
      6 C         142.6031  142.6251  165.6440 C.3     1  UNL1        0.0239
      7 C         142.4639  143.5930  164.5066 C.3     1  UNL1        0.0725
      8 C         140.5859  141.6618  167.5757 C.ar    1  UNL1        0.0071
      9 C         139.8323  140.3943  167.3009 C.ar    1  UNL1       -0.0020
     10 C         139.0045  139.7645  168.3816 C.ar    1  UNL1       -0.0002
     11 C         138.9303  140.4022  169.7372 C.ar    1  UNL1        0.0023
     12 C         139.6839  141.6697  170.0122 C.ar    1  UNL1        0.0293
     13 C         140.5117  142.2995  168.9314 C.ar    1  UNL1        0.1362
     14 F         141.2653  143.5670  169.2062 F       1  UNL1       -0.2045
     15 C         142.4550  141.4385  167.1569 C.3     1  UNL1        0.1467
     16 O         143.3058  140.5186  166.3324 O.3     1  UNL1       -0.3470
     17 C         142.8580  139.1098  166.0777 C.3     1  UNL1        0.1875
     18 C         142.4515  138.6902  164.6962 C.ar    1  UNL1        0.0897
     19 C         141.0105  138.4050  164.3924 C.ar    1  UNL1        0.0212
     20 C         140.6041  137.9855  163.0109 C.ar    1  UNL1        0.0750
     21 C         141.6386  137.8511  161.9330 C.ar    1  UNL1        0.0346
     22 C         143.0796  138.1363  162.2367 C.ar    1  UNL1        0.1380
     23 CL        144.1141  138.0020  161.1589 Cl      1  UNL1       -0.0614
     24 N         143.4861  138.5559  163.6183 N.ar    1  UNL1       -0.2358
     25 C         139.1631  137.7002  162.7070 C.3     1  UNL1        0.4187
     26 F         137.7222  137.4150  162.4032 F       1  UNL1       -0.1659
     27 F         139.4532  137.7991  161.2386 F       1  UNL1       -0.1659
     28 F         138.8731  137.6014  164.1754 F       1  UNL1       -0.1659
@<TRIPOS>BOND
     1     1     2    1
     2     2     3    1
     3     3     4    1
     4     4     5    1
     5     5    15    1
     6    15    16    1
     7    16    17    1
     8    17    18    1
     9    18    19   ar
    10    19    20   ar
    11    20    25    1
    12    25    26    1
    13    25    27    1
    14    25    28    1
    15    20    21   ar
    16    21    22   ar
    17    22    23    1
    18    22    24   ar
    19     5     8    1
    20     8     9   ar
    21     9    10   ar
    22    10    11   ar
    23    11    12   ar
    24    12    13   ar
    25    13    14    1
    26     5     6    1
    27     6     7    1
    28     7     2    1
    29    24    18   ar
    30    13     8   ar
@<TRIPOS>MOLECULE
*****
 28 30 0 0 0
SMALL
GASTEIGER

@<TRIPOS>ATOM
      1 C         138.0306  140.8528  157.7574 C.3     1  UNL1        0.0896
      2 N         138.0918  140.9708  159.2515 N.3     1  UNL1       -0.2715
      3 C         138.5441  142.2531  159.8847 C.3     1  UNL1        0.0725
      4 C         138.6053  142.3710  161.3789 C.3     1  UNL1        0.0239
      5 C         138.2142  141.2066  162.2397 C.3     1  UNL1        0.0511
      6 C         137.7619  139.9242  161.6065 C.3     1  UNL1        0.0239
      7 C         137.7007  139.8063  160.1124 C.3     1  UNL1        0.0725
      8 C         138.5741  142.2049  163.2998 C.ar    1  UNL1        0.0071
      9 C         137.5793  143.2469  163.7175 C.ar    1  UNL1       -0.0020
     10 C         137.9391  144.2453  164.7776 C.ar    1  UNL1       -0.0002
     11 C         139.2939  144.2016  165.4199 C.ar    1  UNL1        0.0023
     12 C         140.2888  143.1597  165.0023 C.ar    1  UNL1        0.0293
     13 C         139.9289  142.1613  163.9422 C.ar    1  UNL1        0.1362
     14 F         140.9237  141.1193  163.5245 F       1  UNL1       -0.2045
     15 C         137.9481  140.3888  163.4688 C.3     1  UNL1        0.1467
     16 O         138.3558  138.9460  163.5124 O.3     1  UNL1       -0.3470
     17 C         138.6546  138.2905  164.8282 C.3     1  UNL1        0.1875
     18 C         139.6780  138.8874  165.7481 C.ar    1  UNL1        0.0897
     19 C         139.2425  139.7461  166.8983 C.ar    1  UNL1        0.0212
     20 C         140.2660  140.3429  167.8182 C.ar    1  UNL1        0.0750
     21 C         141.7249  140.0811  167.5880 C.ar    1  UNL1        0.0346
     22 C         142.1604  139.2224  166.4378 C.ar    1  UNL1        0.1380
     23 CL        143.6193  138.9605  166.2076 Cl      1  UNL1       -0.0614
     24 N         141.1370  138.6255  165.5178 N.ar    1  UNL1       -0.2358
     25 C         139.8305  141.2017  168.9685 C.3     1  UNL1        0.4187
     26 F         139.3951  142.0604  170.1187 F       1  UNL1       -0.1659
     27 F         139.4002  139.9768  169.7200 F       1  UNL1       -0.1659
     28 F         140.2609  142.4265  168.2170 F       1  UNL1       -0.1659
@<TRIPOS>BOND
     1     1     2    1
     2     2     3    1
     3     3     4    1
     4     4     5    1
     5     5    15    1
     6    15    16    1
     7    16    17    1
     8    17    18    1
     9    18    19   ar
    10    19    20   ar
    11    20    25    1
    12    25    26    1
    13    25    27    1
    14    25    28    1
    15    20    21   ar
    16    21    22   ar
    17    22    23    1
    18    22    24   ar
    19     5     8    1
    20     8     9   ar
    21     9    10   ar
    22    10    11   ar
    23    11    12   ar
    24    12    13   ar
    25    13    14    1
    26     5     6    1
    27     6     7    1
    28     7     2    1
    29    24    18   ar
    30    13     8   ar
@<TRIPOS>MOLECULE
*****
 28 30 0 0 0
SMALL
GASTEIGER

@<TRIPOS>ATOM
      1 C         140.7032  141.9153  170.8387 C.3     1  UNL1        0.0896
      2 N         140.9483  141.3285  169.4802 N.3     1  UNL1       -0.2715
      3 C         142.1681  141.7232  168.7016 C.3     1  UNL1        0.0725
      4 C         142.4131  141.1363  167.3430 C.3     1  UNL1        0.0239
      5 C         141.4383  140.1548  166.7631 C.3     1  UNL1        0.0511
      6 C         140.2185  139.7601  167.5417 C.3     1  UNL1        0.0239
      7 C         139.9735  140.3469  168.9002 C.3     1  UNL1        0.0725
      8 C         142.4405  140.2160  165.6487 C.ar    1  UNL1        0.0071
      9 C         142.2814  141.2264  164.5515 C.ar    1  UNL1       -0.0020
     10 C         143.2835  141.2876  163.4371 C.ar    1  UNL1       -0.0002
     11 C         144.4448  140.3384  163.4199 C.ar    1  UNL1        0.0023
     12 C         144.6040  139.3280  164.5170 C.ar    1  UNL1        0.0293
     13 C         143.6018  139.2668  165.6314 C.ar    1  UNL1        0.1362
     14 F         143.7610  138.2564  166.7286 F       1  UNL1       -0.2045
     15 C         140.8116  139.1945  165.7961 C.3     1  UNL1        0.1467
     16 O         139.3205  139.0357  165.7569 O.3     1  UNL1       -0.3470
     17 C         138.5729  139.2870  164.4809 C.3     1  UNL1        0.1875
     18 C         138.5011  140.6740  163.9144 C.ar    1  UNL1        0.0897
     19 C         138.5500  141.8614  164.8297 C.ar    1  UNL1        0.0212
     20 C         138.4783  143.2484  164.2632 C.ar    1  UNL1        0.0750
     21 C         138.3576  143.4481  162.7814 C.ar    1  UNL1        0.0346
     22 C         138.3087  142.2607  161.8662 C.ar    1  UNL1        0.1380
     23 CL        138.1880  142.4604  160.3844 Cl      1  UNL1       -0.0614
     24 N         138.3804  140.8736  162.4327 N.ar    1  UNL1       -0.2358
     25 C         138.5272  144.4360  165.1784 C.3     1  UNL1        0.4187
     26 F         138.5760  145.6234  166.0936 F       1  UNL1       -0.1659
     27 F         137.0282  144.4931  165.1842 F       1  UNL1       -0.1659
     28 F         140.0260  144.3788  165.1725 F       1  UNL1       -0.1659
@<TRIPOS>BOND
     1     1     2    1
     2     2     3    1
     3     3     4    1
     4     4     5    1
     5     5    15    1
     6    15    16    1
     7    16    17    1
     8    17    18    1
     9    18    19   ar
    10    19    20   ar
    11    20    25    1
    12    25    26    1
    13    25    27    1
    14    25    28    1
    15    20    21   ar
    16    21    22   ar
    17    22    23    1
    18    22    24   ar
    19     5     8    1
    20     8     9   ar
    21     9    10   ar
    22    10    11   ar
    23    11    12   ar
    24    12    13   ar
    25    13    14    1
    26     5     6    1
    27     6     7    1
    28     7     2    1
    29    24    18   ar
    30    13     8   ar
@<TRIPOS>MOLECULE
*****
 28 30 0 0 0
SMALL
GASTEIGER

@<TRIPOS>ATOM
      1 C         141.0774  141.3727  171.4398 C.3     1  UNL1        0.0896
      2 N         141.3638  141.5975  169.9847 N.3     1  UNL1       -0.2715
      3 C         142.6069  141.0276  169.3682 C.3     1  UNL1        0.0725
      4 C         142.8933  141.2523  167.9131 C.3     1  UNL1        0.0239
      5 C         141.9367  142.0469  167.0744 C.3     1  UNL1        0.0511
      6 C         140.6936  142.6168  167.6908 C.3     1  UNL1        0.0239
      7 C         140.4072  142.3920  169.1460 C.3     1  UNL1        0.0725
      8 C         142.9725  141.7127  166.0421 C.ar    1  UNL1        0.0071
      9 C         143.8488  142.7933  165.4817 C.ar    1  UNL1       -0.0020
     10 C         144.8846  142.4592  164.4495 C.ar    1  UNL1       -0.0002
     11 C         145.0440  141.0443  163.9777 C.ar    1  UNL1        0.0023
     12 C         144.1676  139.9635  164.5381 C.ar    1  UNL1        0.0293
     13 C         143.1318  140.2978  165.5704 C.ar    1  UNL1        0.1362
     14 F         142.2555  139.2171  166.1308 F       1  UNL1       -0.2045
     15 C         141.3397  142.7254  165.8772 C.3     1  UNL1        0.1467
     16 O         139.8637  142.9868  165.8216 O.3     1  UNL1       -0.3470
     17 C         138.9961  142.1932  164.8902 C.3     1  UNL1        0.1875
     18 C         139.0807  140.6956  164.8797 C.ar    1  UNL1        0.0897
     19 C         139.9706  140.0017  163.8914 C.ar    1  UNL1        0.0212
     20 C         140.0552  138.5041  163.8809 C.ar    1  UNL1        0.0750
     21 C         139.2499  137.7005  164.8585 C.ar    1  UNL1        0.0346
     22 C         138.3600  138.3944  165.8467 C.ar    1  UNL1        0.1380
     23 CL        137.5547  137.5908  166.8243 Cl      1  UNL1       -0.0614
     24 N         138.2754  139.8920  165.8573 N.ar    1  UNL1       -0.2358
     25 C         140.9451  137.8101  162.8927 C.3     1  UNL1        0.4187
     26 F         141.8350  137.1161  161.9046 F       1  UNL1       -0.1659
     27 F         140.6754  138.8924  161.8898 F       1  UNL1       -0.1659
     28 F         141.2147  136.7278  163.8957 F       1  UNL1       -0.1659
@<TRIPOS>BOND
     1     1     2    1
     2     2     3    1
     3     3     4    1
     4     4     5    1
     5     5    15    1
     6    15    16    1
     7    16    17    1
     8    17    18    1
     9    18    19   ar
    10    19    20   ar
    11    20    25    1
    12    25    26    1
    13    25    27    1
    14    25    28    1
    15    20    21   ar
    16    21    22   ar
    17    22    23    1
    18    22    24   ar
    19     5     8    1
    20     8     9   ar
    21     9    10   ar
    22    10    11   ar
    23    11    12   ar
    24    12    13   ar
    25    13    14    1
    26     5     6    1
    27     6     7    1
    28     7     2    1
    29    24    18   ar
    30    13     8   ar
