@<TRIPOS>MOLECULE
*****
 36 39 0 0 0
SMALL
GASTEIGER

@<TRIPOS>ATOM
      1 C         139.1007  138.3805  162.5958 C.3     1  UNL1        0.2722
      2 N         140.7122  139.6894  164.1578 N.am    1  UNL1       -0.2663
      3 C         139.3487  139.1353  163.8681 C.2     1  UNL1        0.2701
      4 O         138.2333  139.3359  164.8507 O.2     1  UNL1       -0.2707
      5 H         141.4443  139.5577  163.5129 H       1  UNL1        0.1564
      6 C         141.4564  141.9537  167.9748 C.ar    1  UNL1        0.0877
      7 C         141.9574  140.5475  167.8270 C.ar    1  UNL1        0.0147
      8 C         141.7093  139.7928  166.5547 C.ar    1  UNL1        0.0352
      9 C         140.9603  140.4441  165.4301 C.ar    1  UNL1        0.1343
     10 N         140.4592  141.8502  165.5778 N.ar    1  UNL1       -0.2283
     11 C         140.7073  142.6050  166.8502 C.ar    1  UNL1        0.1105
     12 N         141.9525  143.4632  170.5194 N.1     1  UNL1       -0.1908
     13 C         141.7044  142.7084  169.2471 C.1     1  UNL1        0.1020
     14 C         137.8099  138.5642  161.8542 C.3     1  UNL1        0.1952
     15 O         137.6732  139.6691  160.8488 O.3     1  UNL1       -0.3467
     16 C         138.2778  141.0138  161.1254 C.3     1  UNL1        0.1740
     17 C         137.7231  141.8743  162.2216 C.3     1  UNL1        0.1692
     18 O         136.6383  141.3467  163.1131 O.3     1  UNL1       -0.3794
     19 H         135.8317  141.2067  162.5928 H       1  UNL1        0.2105
     20 O         140.1435  137.4419  162.0650 O.3     1  UNL1       -0.4517
     21 C         141.4787  137.9715  161.6323 C.ar    1  UNL1        0.2312
     22 N         142.6462  137.9205  162.5726 N.ar    1  UNL1       -0.1892
     23 C         143.9812  138.4500  162.1398 C.ar    1  UNL1        0.2029
     24 N         144.1487  139.0304  160.7669 N.ar    1  UNL1       -0.2045
     25 C         142.9811  139.0813  159.8266 C.ar    1  UNL1        0.1732
     26 C         141.6461  138.5518  160.2593 C.ar    1  UNL1        0.1099
     27 C         140.6843  138.7349  159.1228 C.ar    1  UNL1        0.1283
     28 N         141.4249  139.3775  157.9878 N.ar    1  UNL1       -0.1606
     29 N         142.8445  139.5916  158.4227 N.ar    1  UNL1       -0.1936
     30 C         143.9357  140.2078  157.5985 C.ar    1  UNL1        0.1759
     31 N         144.5024  139.4625  156.4265 N.ar    1  UNL1       -0.2242
     32 C         145.5937  140.0787  155.6023 C.ar    1  UNL1        0.1006
     33 C         146.1183  141.4403  155.9500 C.ar    1  UNL1        0.0217
     34 C         145.5517  142.1856  157.1219 C.ar    1  UNL1        0.0161
     35 C         144.4604  141.5694  157.9461 C.ar    1  UNL1        0.0935
     36 CL        143.8938  142.3147  159.1181 Cl      1  UNL1       -0.0790
@<TRIPOS>BOND
     1    12    13    3
     2    13     6    1
     3     6     7   ar
     4     7     8   ar
     5     8     9   ar
     6     9     2    1
     7     2     3   am
     8     3     4    2
     9     3     1    1
    10     1    14    1
    11    14    15    1
    12    15    16    1
    13    16    17    1
    14    17    18    1
    15     1    20    1
    16    20    21    1
    17    21    22   ar
    18    22    23   ar
    19    23    24   ar
    20    24    25   ar
    21    25    26   ar
    22    26    27   ar
    23    27    28   ar
    24    28    29   ar
    25    29    30    1
    26    30    31   ar
    27    31    32   ar
    28    32    33   ar
    29    33    34   ar
    30    34    35   ar
    31    35    36    1
    32     9    10   ar
    33    10    11   ar
    34    11     6   ar
    35    26    21   ar
    36    35    30   ar
    37    29    25   ar
    38     2     5    1
    39    18    19    1
@<TRIPOS>MOLECULE
*****
 36 39 0 0 0
SMALL
GASTEIGER

@<TRIPOS>ATOM
      1 C         144.1065  140.1769  161.1543 C.3     1  UNL1        0.2722
      2 N         143.3988  142.5986  160.5341 N.am    1  UNL1       -0.2663
      3 C         143.2635  141.1168  160.3443 C.2     1  UNL1        0.2701
      4 O         142.2853  140.5750  159.3446 O.2     1  UNL1       -0.2707
      5 H         144.0408  142.9542  161.1903 H       1  UNL1        0.1564
      6 C         140.8700  145.4184  158.1044 C.ar    1  UNL1        0.0877
      7 C         140.3847  144.9366  159.4395 C.ar    1  UNL1        0.0147
      8 C         141.2276  143.9967  160.2494 C.ar    1  UNL1        0.0352
      9 C         142.5559  143.5385  159.7243 C.ar    1  UNL1        0.1343
     10 N         143.0412  144.0203  158.3893 N.ar    1  UNL1       -0.2283
     11 C         142.1983  144.9603  157.5793 C.ar    1  UNL1        0.1105
     12 N         139.1841  147.2984  156.4846 N.1     1  UNL1       -0.1908
     13 C         140.0271  146.3584  157.2945 C.1     1  UNL1        0.1020
     14 C         144.0753  138.7049  160.8675 C.3     1  UNL1        0.1952
     15 O         143.1551  137.8091  161.6427 O.3     1  UNL1       -0.3467
     16 C         141.6715  138.0209  161.5774 C.3     1  UNL1        0.1740
     17 C         140.7992  137.5719  162.7121 C.3     1  UNL1        0.1692
     18 O         141.3784  136.7453  163.8217 O.3     1  UNL1       -0.3794
     19 H         141.6495  135.8815  163.4738 H       1  UNL1        0.2105
     20 O         144.9807  140.7090  162.2509 O.3     1  UNL1       -0.4517
     21 C         144.3621  141.3053  163.4805 C.ar    1  UNL1        0.2312
     22 N         144.2694  142.7952  163.6263 N.ar    1  UNL1       -0.1892
     23 C         143.6508  143.3914  164.8559 C.ar    1  UNL1        0.2029
     24 N         143.1250  142.4976  165.9397 N.ar    1  UNL1       -0.2045
     25 C         143.2177  141.0077  165.7939 C.ar    1  UNL1        0.1732
     26 C         143.8363  140.4115  164.5643 C.ar    1  UNL1        0.1099
     27 C         143.7896  138.9182  164.6994 C.ar    1  UNL1        0.1283
     28 N         143.1422  138.5916  166.0124 N.ar    1  UNL1       -0.1606
     29 N         142.7887  139.8829  166.6889 N.ar    1  UNL1       -0.1936
     30 C         142.1232  140.0247  168.0256 C.ar    1  UNL1        0.1759
     31 N         142.9522  140.0761  169.2746 N.ar    1  UNL1       -0.2242
     32 C         142.2866  140.2178  170.6113 C.ar    1  UNL1        0.1006
     33 C         140.7919  140.3082  170.6992 C.ar    1  UNL1        0.0217
     34 C         139.9629  140.2568  169.4502 C.ar    1  UNL1        0.0161
     35 C         140.6284  140.1151  168.1134 C.ar    1  UNL1        0.0935
     36 CL        139.7993  140.0637  166.8645 Cl      1  UNL1       -0.0790
@<TRIPOS>BOND
     1    12    13    3
     2    13     6    1
     3     6     7   ar
     4     7     8   ar
     5     8     9   ar
     6     9     2    1
     7     2     3   am
     8     3     4    2
     9     3     1    1
    10     1    14    1
    11    14    15    1
    12    15    16    1
    13    16    17    1
    14    17    18    1
    15     1    20    1
    16    20    21    1
    17    21    22   ar
    18    22    23   ar
    19    23    24   ar
    20    24    25   ar
    21    25    26   ar
    22    26    27   ar
    23    27    28   ar
    24    28    29   ar
    25    29    30    1
    26    30    31   ar
    27    31    32   ar
    28    32    33   ar
    29    33    34   ar
    30    34    35   ar
    31    35    36    1
    32     9    10   ar
    33    10    11   ar
    34    11     6   ar
    35    26    21   ar
    36    35    30   ar
    37    29    25   ar
    38     2     5    1
    39    18    19    1
@<TRIPOS>MOLECULE
*****
 36 39 0 0 0
SMALL
GASTEIGER

@<TRIPOS>ATOM
      1 C         142.7722  138.4426  163.0206 C.3     1  UNL1        0.2722
      2 N         141.2167  139.8496  164.5539 N.am    1  UNL1       -0.2663
      3 C         142.4641  139.0390  164.3621 C.2     1  UNL1        0.2701
      4 O         143.4036  138.8249  165.5116 O.2     1  UNL1       -0.2707
      5 H         140.6001  139.9902  163.7993 H       1  UNL1        0.1564
      6 C         140.2926  141.6391  168.5780 C.ar    1  UNL1        0.0877
      7 C         139.7008  140.3159  168.1918 C.ar    1  UNL1        0.0147
      8 C         140.0089  139.7194  166.8504 C.ar    1  UNL1        0.0352
      9 C         140.9086  140.4461  165.8952 C.ar    1  UNL1        0.1343
     10 N         141.5004  141.7692  166.2814 N.ar    1  UNL1       -0.2283
     11 C         141.1923  142.3657  167.6228 C.ar    1  UNL1        0.1105
     12 N         139.6764  142.8320  171.2608 N.1     1  UNL1       -0.1908
     13 C         139.9845  142.2355  169.9194 C.1     1  UNL1        0.1020
     14 C         144.0748  138.7510  162.3439 C.3     1  UNL1        0.1952
     15 O         144.2094  139.9864  161.5038 O.3     1  UNL1       -0.3467
     16 C         144.0527  141.3403  162.1304 C.3     1  UNL1        0.1740
     17 C         144.9139  141.7322  163.2944 C.3     1  UNL1        0.1692
     18 O         146.4051  141.7838  163.1402 O.3     1  UNL1       -0.3794
     19 H         146.7448  140.8893  162.9809 H       1  UNL1        0.2105
     20 O         141.7775  137.5377  162.3559 O.3     1  UNL1       -0.4517
     21 C         140.5114  138.1050  161.7857 C.ar    1  UNL1        0.2312
     22 N         139.2413  138.0542  162.5820 N.ar    1  UNL1       -0.1892
     23 C         137.9753  138.6215  162.0117 C.ar    1  UNL1        0.2029
     24 N         137.9794  139.2397  160.6450 N.ar    1  UNL1       -0.2045
     25 C         139.2494  139.2905  159.8487 C.ar    1  UNL1        0.1732
     26 C         140.5154  138.7232  160.4190 C.ar    1  UNL1        0.1099
     27 C         141.6064  138.9152  159.4075 C.ar    1  UNL1        0.1283
     28 N         141.0145  139.6012  158.2120 N.ar    1  UNL1       -0.1606
     29 N         139.5579  139.8332  158.4847 N.ar    1  UNL1       -0.1936
     30 C         138.5811  140.4921  157.5564 C.ar    1  UNL1        0.1759
     31 N         138.0102  139.7251  156.4007 N.ar    1  UNL1       -0.2242
     32 C         137.0334  140.3840  155.4724 C.ar    1  UNL1        0.1006
     33 C         136.6275  141.8100  155.6998 C.ar    1  UNL1        0.0217
     34 C         137.1984  142.5770  156.8555 C.ar    1  UNL1        0.0161
     35 C         138.1752  141.9181  157.7838 C.ar    1  UNL1        0.0935
     36 CL        138.7461  142.6852  158.9395 Cl      1  UNL1       -0.0790
@<TRIPOS>BOND
     1    12    13    3
     2    13     6    1
     3     6     7   ar
     4     7     8   ar
     5     8     9   ar
     6     9     2    1
     7     2     3   am
     8     3     4    2
     9     3     1    1
    10     1    14    1
    11    14    15    1
    12    15    16    1
    13    16    17    1
    14    17    18    1
    15     1    20    1
    16    20    21    1
    17    21    22   ar
    18    22    23   ar
    19    23    24   ar
    20    24    25   ar
    21    25    26   ar
    22    26    27   ar
    23    27    28   ar
    24    28    29   ar
    25    29    30    1
    26    30    31   ar
    27    31    32   ar
    28    32    33   ar
    29    33    34   ar
    30    34    35   ar
    31    35    36    1
    32     9    10   ar
    33    10    11   ar
    34    11     6   ar
    35    26    21   ar
    36    35    30   ar
    37    29    25   ar
    38     2     5    1
    39    18    19    1
@<TRIPOS>MOLECULE
*****
 36 39 0 0 0
SMALL
GASTEIGER

@<TRIPOS>ATOM
      1 C         144.5803  140.1121  164.0809 C.3     1  UNL1        0.2722
      2 N         143.4430  141.8771  165.6110 N.am    1  UNL1       -0.2663
      3 C         143.7092  140.4442  165.2560 C.2     1  UNL1        0.2701
      4 O         143.1043  139.3435  166.0760 O.2     1  UNL1       -0.2707
      5 H         143.8400  142.5995  165.0728 H       1  UNL1        0.1564
      6 C         140.8297  142.8736  169.1363 C.ar    1  UNL1        0.0877
      7 C         140.2370  142.8001  167.7603 C.ar    1  UNL1        0.0147
      8 C         141.1081  142.4680  166.5852 C.ar    1  UNL1        0.0352
      9 C         142.5719  142.2093  166.7861 C.ar    1  UNL1        0.1343
     10 N         143.1646  142.2827  168.1620 N.ar    1  UNL1       -0.2283
     11 C         142.2935  142.6149  169.3372 C.ar    1  UNL1        0.1105
     12 N         139.0875  143.5379  171.4865 N.1     1  UNL1       -0.1908
     13 C         139.9586  143.2058  170.3114 C.1     1  UNL1        0.1020
     14 C         145.5941  141.1049  163.5944 C.3     1  UNL1        0.1952
     15 O         145.2792  142.5713  163.6181 O.3     1  UNL1       -0.3467
     16 C         144.4556  143.1793  162.5217 C.3     1  UNL1        0.1740
     17 C         143.7001  144.4514  162.7685 C.3     1  UNL1        0.1692
     18 O         142.7688  144.9859  161.7212 O.3     1  UNL1       -0.3794
     19 H         143.2786  145.2490  160.9391 H       1  UNL1        0.2105
     20 O         144.4376  138.7872  163.3922 O.3     1  UNL1       -0.4517
     21 C         143.1793  138.4631  162.6428 C.ar    1  UNL1        0.2312
     22 N         141.9918  137.9110  163.3742 N.ar    1  UNL1       -0.1892
     23 C         140.7335  137.5869  162.6248 C.ar    1  UNL1        0.2029
     24 N         140.6627  137.8151  161.1439 N.ar    1  UNL1       -0.2045
     25 C         141.8502  138.3672  160.4125 C.ar    1  UNL1        0.1732
     26 C         143.1084  138.6913  161.1619 C.ar    1  UNL1        0.1099
     27 C         144.1105  139.2199  160.1788 C.ar    1  UNL1        0.1283
     28 N         143.4715  139.2226  158.8217 N.ar    1  UNL1       -0.1606
     29 N         142.0745  138.6956  158.9662 N.ar    1  UNL1       -0.1936
     30 C         141.0770  138.5266  157.8588 C.ar    1  UNL1        0.1759
     31 N         141.0697  137.2690  157.0412 N.ar    1  UNL1       -0.2242
     32 C         140.0722  137.1001  155.9338 C.ar    1  UNL1        0.1006
     33 C         139.0819  138.1887  155.6439 C.ar    1  UNL1        0.0217
     34 C         139.0892  139.4463  156.4614 C.ar    1  UNL1        0.0161
     35 C         140.0867  139.6153  157.5688 C.ar    1  UNL1        0.0935
     36 CL        140.0938  140.8729  158.3863 Cl      1  UNL1       -0.0790
@<TRIPOS>BOND
     1    12    13    3
     2    13     6    1
     3     6     7   ar
     4     7     8   ar
     5     8     9   ar
     6     9     2    1
     7     2     3   am
     8     3     4    2
     9     3     1    1
    10     1    14    1
    11    14    15    1
    12    15    16    1
    13    16    17    1
    14    17    18    1
    15     1    20    1
    16    20    21    1
    17    21    22   ar
    18    22    23   ar
    19    23    24   ar
    20    24    25   ar
    21    25    26   ar
    22    26    27   ar
    23    27    28   ar
    24    28    29   ar
    25    29    30    1
    26    30    31   ar
    27    31    32   ar
    28    32    33   ar
    29    33    34   ar
    30    34    35   ar
    31    35    36    1
    32     9    10   ar
    33    10    11   ar
    34    11     6   ar
    35    26    21   ar
    36    35    30   ar
    37    29    25   ar
    38     2     5    1
    39    18    19    1
@<TRIPOS>MOLECULE
*****
 36 39 0 0 0
SMALL
GASTEIGER

@<TRIPOS>ATOM
      1 C         144.5658  143.0547  163.3532 C.3     1  UNL1        0.2722
      2 N         142.8965  142.1975  165.1501 N.am    1  UNL1       -0.2663
      3 C         144.0690  143.0517  164.7686 C.2     1  UNL1        0.2701
      4 O         144.7447  143.9030  165.8024 O.2     1  UNL1       -0.2707
      5 H         142.4531  141.6388  164.4715 H       1  UNL1        0.1564
      6 C         141.4061  142.1886  169.3960 C.ar    1  UNL1        0.0877
      7 C         140.5082  142.6510  168.2869 C.ar    1  UNL1        0.0147
      8 C         141.0050  142.6540  166.8716 C.ar    1  UNL1        0.0352
      9 C         142.3997  142.1945  166.5654 C.ar    1  UNL1        0.1343
     10 N         143.2975  141.7321  167.6744 N.ar    1  UNL1       -0.2283
     11 C         142.8007  141.7291  169.0898 C.ar    1  UNL1        0.1105
     12 N         140.4124  142.1826  172.2267 N.1     1  UNL1       -0.1908
     13 C         140.9093  142.1856  170.8113 C.1     1  UNL1        0.1020
     14 C         144.3311  144.2503  162.4784 C.3     1  UNL1        0.1952
     15 O         143.1186  144.3086  161.5972 O.3     1  UNL1       -0.3467
     16 C         141.7592  144.4946  162.2034 C.3     1  UNL1        0.1740
     17 C         141.5916  145.3580  163.4185 C.3     1  UNL1        0.1692
     18 O         140.3331  145.2742  164.2303 O.3     1  UNL1       -0.3794
     19 H         139.5851  145.5922  163.7009 H       1  UNL1        0.2105
     20 O         145.2974  141.8619  162.8126 O.3     1  UNL1       -0.4517
     21 C         144.5299  140.6679  162.3275 C.ar    1  UNL1        0.2312
     22 N         144.1740  139.5667  163.2818 N.ar    1  UNL1       -0.1892
     23 C         143.4065  138.3728  162.7967 C.ar    1  UNL1        0.2029
     24 N         142.9949  138.2799  161.3573 N.ar    1  UNL1       -0.2045
     25 C         143.3508  139.3811  160.4030 C.ar    1  UNL1        0.1732
     26 C         144.1183  140.5750  160.8881 C.ar    1  UNL1        0.1099
     27 C         144.3249  141.4978  159.7236 C.ar    1  UNL1        0.1283
     28 N         143.6851  140.8740  158.5188 N.ar    1  UNL1       -0.1606
     29 N         143.0831  139.5658  158.9387 N.ar    1  UNL1       -0.1936
     30 C         142.3433  138.6102  158.0502 C.ar    1  UNL1        0.1759
     31 N         143.0902  137.5341  157.3194 N.ar    1  UNL1       -0.2242
     32 C         142.3503  136.5784  156.4310 C.ar    1  UNL1        0.1006
     33 C         140.8635  136.6988  156.2734 C.ar    1  UNL1        0.0217
     34 C         140.1166  137.7749  157.0042 C.ar    1  UNL1        0.0161
     35 C         140.8564  138.7306  157.8926 C.ar    1  UNL1        0.0935
     36 CL        140.1094  139.8066  158.6234 Cl      1  UNL1       -0.0790
@<TRIPOS>BOND
     1    12    13    3
     2    13     6    1
     3     6     7   ar
     4     7     8   ar
     5     8     9   ar
     6     9     2    1
     7     2     3   am
     8     3     4    2
     9     3     1    1
    10     1    14    1
    11    14    15    1
    12    15    16    1
    13    16    17    1
    14    17    18    1
    15     1    20    1
    16    20    21    1
    17    21    22   ar
    18    22    23   ar
    19    23    24   ar
    20    24    25   ar
    21    25    26   ar
    22    26    27   ar
    23    27    28   ar
    24    28    29   ar
    25    29    30    1
    26    30    31   ar
    27    31    32   ar
    28    32    33   ar
    29    33    34   ar
    30    34    35   ar
    31    35    36    1
    32     9    10   ar
    33    10    11   ar
    34    11     6   ar
    35    26    21   ar
    36    35    30   ar
    37    29    25   ar
    38     2     5    1
    39    18    19    1
@<TRIPOS>MOLECULE
*****
 36 39 0 0 0
SMALL
GASTEIGER

@<TRIPOS>ATOM
      1 C         138.7881  138.8001  163.5259 C.3     1  UNL1        0.2722
      2 N         140.3377  140.4850  164.7547 N.am    1  UNL1       -0.2663
      3 C         139.2995  139.4033  164.8006 C.2     1  UNL1        0.2701
      4 O         138.7728  138.9248  166.1210 O.2     1  UNL1       -0.2707
      5 H         140.6833  140.7991  163.8881 H       1  UNL1        0.1564
      6 C         141.8720  142.2946  168.5785 C.ar    1  UNL1        0.0877
      7 C         140.6731  142.8852  167.8974 C.ar    1  UNL1        0.0147
      8 C         140.1617  142.2820  166.6228 C.ar    1  UNL1        0.0352
      9 C         140.8491  141.0882  166.0293 C.ar    1  UNL1        0.1343
     10 N         142.0480  140.4976  166.7103 N.ar    1  UNL1       -0.2283
     11 C         142.5595  141.1008  167.9849 C.ar    1  UNL1        0.1105
     12 N         142.8949  143.5010  171.1277 N.1     1  UNL1       -0.1908
     13 C         142.3835  142.8978  169.8530 C.1     1  UNL1        0.1020
     14 C         139.3323  137.4872  163.0462 C.3     1  UNL1        0.1952
     15 O         140.7702  137.1371  163.2906 O.3     1  UNL1       -0.3467
     16 C         141.8359  137.6611  162.3741 C.3     1  UNL1        0.1740
     17 C         143.0062  138.4120  162.9367 C.3     1  UNL1        0.1692
     18 O         142.9919  138.8599  164.3682 O.3     1  UNL1       -0.3794
     19 H         142.2973  139.5257  164.4917 H       1  UNL1        0.2105
     20 O         137.7324  139.5099  162.7310 O.3     1  UNL1       -0.4517
     21 C         137.9635  140.9169  162.2652 C.ar    1  UNL1        0.2312
     22 N         137.4882  142.0703  163.0982 N.ar    1  UNL1       -0.1892
     23 C         137.7193  143.4772  162.6324 C.ar    1  UNL1        0.2029
     24 N         138.4256  143.7308  161.3336 N.ar    1  UNL1       -0.2045
     25 C         138.9009  142.5775  160.5007 C.ar    1  UNL1        0.1732
     26 C         138.6698  141.1705  160.9665 C.ar    1  UNL1        0.1099
     27 C         139.2473  140.2416  159.9399 C.ar    1  UNL1        0.1283
     28 N         139.8352  141.0745  158.8397 N.ar    1  UNL1       -0.1606
     29 N         139.6211  142.5182  159.1862 N.ar    1  UNL1       -0.1936
     30 C         140.0517  143.6958  158.3629 C.ar    1  UNL1        0.1759
     31 N         139.3079  144.0460  157.1084 N.ar    1  UNL1       -0.2242
     32 C         139.7384  145.2236  156.2850 C.ar    1  UNL1        0.1006
     33 C         140.9129  146.0511  156.7163 C.ar    1  UNL1        0.0217
     34 C         141.6567  145.7008  157.9709 C.ar    1  UNL1        0.0161
     35 C         141.2261  144.5232  158.7942 C.ar    1  UNL1        0.0935
     36 CL        141.9700  144.1731  160.0488 Cl      1  UNL1       -0.0790
@<TRIPOS>BOND
     1    12    13    3
     2    13     6    1
     3     6     7   ar
     4     7     8   ar
     5     8     9   ar
     6     9     2    1
     7     2     3   am
     8     3     4    2
     9     3     1    1
    10     1    14    1
    11    14    15    1
    12    15    16    1
    13    16    17    1
    14    17    18    1
    15     1    20    1
    16    20    21    1
    17    21    22   ar
    18    22    23   ar
    19    23    24   ar
    20    24    25   ar
    21    25    26   ar
    22    26    27   ar
    23    27    28   ar
    24    28    29   ar
    25    29    30    1
    26    30    31   ar
    27    31    32   ar
    28    32    33   ar
    29    33    34   ar
    30    34    35   ar
    31    35    36    1
    32     9    10   ar
    33    10    11   ar
    34    11     6   ar
    35    26    21   ar
    36    35    30   ar
    37    29    25   ar
    38     2     5    1
    39    18    19    1
@<TRIPOS>MOLECULE
*****
 36 39 0 0 0
SMALL
GASTEIGER

@<TRIPOS>ATOM
      1 C         142.3502  138.9529  156.9013 C.3     1  UNL1        0.2722
      2 N         142.0944  136.3714  156.7568 N.am    1  UNL1       -0.2663
      3 C         142.9352  137.6041  156.6034 C.2     1  UNL1        0.2701
      4 O         144.3610  137.4881  156.1522 O.2     1  UNL1       -0.2707
      5 H         141.1586  136.4476  157.0529 H       1  UNL1        0.1564
      6 C         143.8493  132.3252  155.8632 C.ar    1  UNL1        0.0877
      7 C         142.9979  133.0162  154.8396 C.ar    1  UNL1        0.0147
      8 C         142.4129  134.3649  155.1374 C.ar    1  UNL1        0.0352
      9 C         142.6793  135.0227  156.4589 C.ar    1  UNL1        0.1343
     10 N         143.5307  134.3319  157.4825 N.ar    1  UNL1       -0.2283
     11 C         144.1157  132.9831  157.1847 C.ar    1  UNL1        0.1105
     12 N         145.0193  129.6277  155.2675 N.1     1  UNL1       -0.1908
     13 C         144.4343  130.9765  155.5654 C.1     1  UNL1        0.1020
     14 C         141.1622  139.4426  156.1275 C.3     1  UNL1        0.1952
     15 O         140.7062  138.7023  154.9052 O.3     1  UNL1       -0.3467
     16 C         139.2409  138.5626  154.6161 C.3     1  UNL1        0.1740
     17 C         138.5073  137.3251  155.0411 C.3     1  UNL1        0.1692
     18 O         138.9599  136.5633  156.2514 O.3     1  UNL1       -0.3794
     19 H         139.8366  136.1831  156.0849 H       1  UNL1        0.2105
     20 O         142.9532  139.8118  157.9730 O.3     1  UNL1       -0.4517
     21 C         142.8522  139.3980  159.4113 C.ar    1  UNL1        0.2312
     22 N         143.9303  138.5562  160.0270 N.ar    1  UNL1       -0.1892
     23 C         143.8292  138.1423  161.4652 C.ar    1  UNL1        0.2029
     24 N         142.6501  138.5703  162.2877 N.ar    1  UNL1       -0.2045
     25 C         141.5720  139.4121  161.6720 C.ar    1  UNL1        0.1732
     26 C         141.6731  139.8259  160.2338 C.ar    1  UNL1        0.1099
     27 C         140.4649  140.6510  159.9029 C.ar    1  UNL1        0.1283
     28 N         139.6171  140.7471  161.1366 N.ar    1  UNL1       -0.1606
     29 N         140.3014  139.9814  162.2300 N.ar    1  UNL1       -0.1936
     30 C         139.8026  139.8143  163.6347 C.ar    1  UNL1        0.1759
     31 N         140.0520  140.8882  164.6519 N.ar    1  UNL1       -0.2242
     32 C         139.5533  140.7211  166.0566 C.ar    1  UNL1        0.1006
     33 C         138.8050  139.4802  166.4443 C.ar    1  UNL1        0.0217
     34 C         138.5556  138.4063  165.4271 C.ar    1  UNL1        0.0161
     35 C         139.0544  138.5734  164.0224 C.ar    1  UNL1        0.0935
     36 CL        138.8050  137.4995  163.0052 Cl      1  UNL1       -0.0790
@<TRIPOS>BOND
     1    12    13    3
     2    13     6    1
     3     6     7   ar
     4     7     8   ar
     5     8     9   ar
     6     9     2    1
     7     2     3   am
     8     3     4    2
     9     3     1    1
    10     1    14    1
    11    14    15    1
    12    15    16    1
    13    16    17    1
    14    17    18    1
    15     1    20    1
    16    20    21    1
    17    21    22   ar
    18    22    23   ar
    19    23    24   ar
    20    24    25   ar
    21    25    26   ar
    22    26    27   ar
    23    27    28   ar
    24    28    29   ar
    25    29    30    1
    26    30    31   ar
    27    31    32   ar
    28    32    33   ar
    29    33    34   ar
    30    34    35   ar
    31    35    36    1
    32     9    10   ar
    33    10    11   ar
    34    11     6   ar
    35    26    21   ar
    36    35    30   ar
    37    29    25   ar
    38     2     5    1
    39    18    19    1
@<TRIPOS>MOLECULE
*****
 36 39 0 0 0
SMALL
GASTEIGER

@<TRIPOS>ATOM
      1 C         138.1930  142.7741  162.4790 C.3     1  UNL1        0.2722
      2 N         139.4484  141.6627  164.4637 N.am    1  UNL1       -0.2663
      3 C         138.4404  142.6493  163.9533 C.2     1  UNL1        0.2701
      4 O         137.6797  143.5111  164.9170 O.2     1  UNL1       -0.2707
      5 H         139.9476  141.0971  163.8312 H       1  UNL1        0.1564
      6 C         140.1906  141.2883  168.8863 C.ar    1  UNL1        0.0877
      7 C         139.5378  140.1643  168.1375 C.ar    1  UNL1        0.0147
      8 C         139.2904  140.2891  166.6633 C.ar    1  UNL1        0.0352
      9 C         139.6958  141.5379  165.9379 C.ar    1  UNL1        0.1343
     10 N         140.3485  142.6618  166.6866 N.ar    1  UNL1       -0.2283
     11 C         140.5960  142.5371  168.1608 C.ar    1  UNL1        0.1105
     12 N         140.6854  141.0386  171.8346 N.1     1  UNL1       -0.1908
     13 C         140.4380  141.1635  170.3604 C.1     1  UNL1        0.1020
     14 C         138.6865  143.9794  161.7351 C.3     1  UNL1        0.1952
     15 O         139.2524  145.1463  162.4889 O.3     1  UNL1       -0.3467
     16 C         140.7385  145.3171  162.6011 C.3     1  UNL1        0.1740
     17 C         141.4401  144.9606  163.8781 C.3     1  UNL1        0.1692
     18 O         141.8711  143.5456  164.1272 O.3     1  UNL1       -0.3794
     19 H         141.0883  142.9787  164.2084 H       1  UNL1        0.2105
     20 O         137.4521  141.6934  161.7488 O.3     1  UNL1       -0.4517
     21 C         138.1452  140.4075  161.4078 C.ar    1  UNL1        0.2312
     22 N         138.1995  139.2954  162.4128 N.ar    1  UNL1       -0.1892
     23 C         138.8926  138.0096  162.0719 C.ar    1  UNL1        0.2029
     24 N         139.5315  137.8360  160.7259 N.ar    1  UNL1       -0.2045
     25 C         139.4773  138.9482  159.7209 C.ar    1  UNL1        0.1732
     26 C         138.7842  140.2339  160.0619 C.ar    1  UNL1        0.1099
     27 C         138.8910  141.1467  158.8763 C.ar    1  UNL1        0.1283
     28 N         139.6502  140.4250  157.8026 N.ar    1  UNL1       -0.1606
     29 N         140.0125  139.0663  158.3246 N.ar    1  UNL1       -0.1936
     30 C         140.7761  138.0109  157.5809 C.ar    1  UNL1        0.1759
     31 N         142.1525  137.6222  158.0328 N.ar    1  UNL1       -0.2242
     32 C         142.9160  136.5668  157.2891 C.ar    1  UNL1        0.1006
     33 C         142.3031  135.9000  156.0934 C.ar    1  UNL1        0.0217
     34 C         140.9267  136.2886  155.6415 C.ar    1  UNL1        0.0161
     35 C         140.1631  137.3441  156.3852 C.ar    1  UNL1        0.0935
     36 CL        138.7867  137.7327  155.9332 Cl      1  UNL1       -0.0790
@<TRIPOS>BOND
     1    12    13    3
     2    13     6    1
     3     6     7   ar
     4     7     8   ar
     5     8     9   ar
     6     9     2    1
     7     2     3   am
     8     3     4    2
     9     3     1    1
    10     1    14    1
    11    14    15    1
    12    15    16    1
    13    16    17    1
    14    17    18    1
    15     1    20    1
    16    20    21    1
    17    21    22   ar
    18    22    23   ar
    19    23    24   ar
    20    24    25   ar
    21    25    26   ar
    22    26    27   ar
    23    27    28   ar
    24    28    29   ar
    25    29    30    1
    26    30    31   ar
    27    31    32   ar
    28    32    33   ar
    29    33    34   ar
    30    34    35   ar
    31    35    36    1
    32     9    10   ar
    33    10    11   ar
    34    11     6   ar
    35    26    21   ar
    36    35    30   ar
    37    29    25   ar
    38     2     5    1
    39    18    19    1
@<TRIPOS>MOLECULE
*****
 36 39 0 0 0
SMALL
GASTEIGER

@<TRIPOS>ATOM
      1 C         143.3795  139.9257  160.2165 C.3     1  UNL1        0.2722
      2 N         143.1785  138.9154  157.8313 N.am    1  UNL1       -0.2663
      3 C         143.1653  138.7414  159.3212 C.2     1  UNL1        0.2701
      4 O         142.9378  137.3832  159.9156 O.2     1  UNL1       -0.2707
      5 H         143.3279  139.8069  157.4412 H       1  UNL1        0.1564
      6 C         142.5359  135.3627  155.1453 C.ar    1  UNL1        0.0877
      7 C         141.3698  135.9922  155.8482 C.ar    1  UNL1        0.0147
      8 C         141.5840  137.1764  156.7435 C.ar    1  UNL1        0.0352
      9 C         142.9643  137.7312  156.9360 C.ar    1  UNL1        0.1343
     10 N         144.1304  137.1017  156.2331 N.ar    1  UNL1       -0.2283
     11 C         143.9162  135.9174  155.3377 C.ar    1  UNL1        0.1105
     12 N         142.1074  132.9942  153.3545 N.1     1  UNL1       -0.1908
     13 C         142.3217  134.1784  154.2499 C.1     1  UNL1        0.1020
     14 C         142.4981  141.1325  160.0877 C.3     1  UNL1        0.1952
     15 O         141.0092  140.9894  160.2007 O.3     1  UNL1       -0.3467
     16 C         140.4145  140.2169  161.3407 C.3     1  UNL1        0.1740
     17 C         139.6850  138.9330  161.0770 C.3     1  UNL1        0.1692
     18 O         140.3100  137.6235  161.4572 O.3     1  UNL1       -0.3794
     19 H         141.1017  137.4742  160.9170 H       1  UNL1        0.2105
     20 O         144.4752  139.9031  161.2407 O.3     1  UNL1       -0.4517
     21 C         144.2411  140.4868  162.6025 C.ar    1  UNL1        0.2312
     22 N         144.7842  141.8436  162.9405 N.ar    1  UNL1       -0.1892
     23 C         144.5500  142.4272  164.3023 C.ar    1  UNL1        0.2029
     24 N         143.7727  141.6541  165.3261 N.ar    1  UNL1       -0.2045
     25 C         143.2296  140.2974  164.9881 C.ar    1  UNL1        0.1732
     26 C         143.4637  139.7138  163.6263 C.ar    1  UNL1        0.1099
     27 C         142.8110  138.3639  163.5820 C.ar    1  UNL1        0.1283
     28 N         142.1735  138.1133  164.9164 N.ar    1  UNL1       -0.1606
     29 N         142.4321  139.3083  165.7854 N.ar    1  UNL1       -0.1936
     30 C         141.9738  139.4835  167.2029 C.ar    1  UNL1        0.1759
     31 N         142.8901  139.1296  168.3366 N.ar    1  UNL1       -0.2242
     32 C         142.4318  139.3048  169.7540 C.ar    1  UNL1        0.1006
     33 C         141.0572  139.8338  170.0379 C.ar    1  UNL1        0.0217
     34 C         140.1409  140.1876  168.9043 C.ar    1  UNL1        0.0161
     35 C         140.5992  140.0125  167.4868 C.ar    1  UNL1        0.0935
     36 CL        139.6829  140.3663  166.3532 Cl      1  UNL1       -0.0790
@<TRIPOS>BOND
     1    12    13    3
     2    13     6    1
     3     6     7   ar
     4     7     8   ar
     5     8     9   ar
     6     9     2    1
     7     2     3   am
     8     3     4    2
     9     3     1    1
    10     1    14    1
    11    14    15    1
    12    15    16    1
    13    16    17    1
    14    17    18    1
    15     1    20    1
    16    20    21    1
    17    21    22   ar
    18    22    23   ar
    19    23    24   ar
    20    24    25   ar
    21    25    26   ar
    22    26    27   ar
    23    27    28   ar
    24    28    29   ar
    25    29    30    1
    26    30    31   ar
    27    31    32   ar
    28    32    33   ar
    29    33    34   ar
    30    34    35   ar
    31    35    36    1
    32     9    10   ar
    33    10    11   ar
    34    11     6   ar
    35    26    21   ar
    36    35    30   ar
    37    29    25   ar
    38     2     5    1
    39    18    19    1
