@<TRIPOS>MOLECULE
*****
 30 33 0 0 0
SMALL
GASTEIGER

@<TRIPOS>ATOM
      1 C         138.8388  139.4020  159.5008 C.3     1  UNL1        0.0719
      2 C         138.6939  139.5817  160.9830 C.ar    1  UNL1        0.1229
      3 N         138.8375  138.4025  161.8990 N.ar    1  UNL1       -0.2322
      4 C         138.6926  138.5822  163.3812 C.ar    1  UNL1        0.0874
      5 C         138.8362  137.4031  164.2972 C.ar    1  UNL1        0.0224
      6 C         138.6913  137.5827  165.7793 C.ar    1  UNL1        0.0390
      7 C         138.4028  138.9415  166.3454 C.ar    1  UNL1        0.1455
      8 C         138.2592  140.1206  165.4294 C.ar    1  UNL1        0.0437
      9 C         138.4041  139.9410  163.9473 C.ar    1  UNL1        0.0769
     10 C         138.2605  141.1201  163.0313 C.ar    1  UNL1        0.2632
     11 O         137.9720  142.4789  163.5974 O.2     1  UNL1       -0.2669
     12 N         138.4054  140.9404  161.5492 N.ar    1  UNL1       -0.2840
     13 O         138.2579  139.1211  167.8276 O.3     1  UNL1       -0.4535
     14 C         139.3063  139.8668  168.5987 C.ar    1  UNL1        0.1454
     15 C         138.9720  140.4663  169.9325 C.ar    1  UNL1        0.0398
     16 C         140.0205  141.2120  170.7036 C.ar    1  UNL1        0.0328
     17 C         141.4033  141.3582  170.1410 C.ar    1  UNL1        0.1403
     18 F         142.4517  142.1039  170.9122 F       1  UNL1       -0.2042
     19 C         141.7376  140.7588  168.8073 C.ar    1  UNL1        0.0328
     20 C         140.6892  140.0131  168.0361 C.ar    1  UNL1        0.0398
     21 C         138.2618  142.1196  160.6331 C.3     1  UNL1        0.1115
     22 C         139.4364  143.0160  160.3748 C.3     1  UNL1        0.0388
     23 C         139.6312  143.6247  159.0177 C.3     1  UNL1        0.0048
     24 C         140.8058  144.5211  158.7594 C.3     1  UNL1        0.0174
     25 C         141.7856  144.8089  159.8582 C.3     1  UNL1        0.0720
     26 N         141.5908  144.2002  161.2152 N.3     1  UNL1       -0.2739
     27 C         140.4162  143.3038  161.4735 C.3     1  UNL1        0.0739
     28 C         142.5705  144.4880  162.3139 C.3     1  UNL1        0.0576
     29 C         142.1462  145.2951  163.5049 C.3     1  UNL1        0.0173
     30 C         143.9748  143.9686  162.2216 C.3     1  UNL1        0.0173
@<TRIPOS>BOND
     1     1     2    1
     2     2     3   ar
     3     3     4   ar
     4     4     5   ar
     5     5     6   ar
     6     6     7   ar
     7     7    13    1
     8    13    14    1
     9    14    15   ar
    10    15    16   ar
    11    16    17   ar
    12    17    18    1
    13    17    19   ar
    14    19    20   ar
    15     7     8   ar
    16     8     9   ar
    17     9    10   ar
    18    10    11    2
    19    10    12   ar
    20    12    21    1
    21    22    21    1
    22    22    23    1
    23    23    24    1
    24    24    25    1
    25    25    26    1
    26    26    28    1
    27    28    29    1
    28    28    30    1
    29    26    27    1
    30    12     2   ar
    31    27    22    1
    32     9     4   ar
    33    20    14   ar
@<TRIPOS>MOLECULE
*****
 30 33 0 0 0
SMALL
GASTEIGER

@<TRIPOS>ATOM
      1 C         139.8564  138.4628  158.6917 C.3     1  UNL1        0.0719
      2 C         139.4933  138.7331  160.1219 C.ar    1  UNL1        0.1229
      3 N         140.0773  137.8899  161.2162 N.ar    1  UNL1       -0.2322
      4 C         139.7142  138.1602  162.6464 C.ar    1  UNL1        0.0874
      5 C         140.2983  137.3170  163.7407 C.ar    1  UNL1        0.0224
      6 C         139.9352  137.5874  165.1708 C.ar    1  UNL1        0.0390
      7 C         138.9880  138.7010  165.5064 C.ar    1  UNL1        0.1455
      8 C         138.4039  139.5442  164.4120 C.ar    1  UNL1        0.0437
      9 C         138.7670  139.2739  162.9820 C.ar    1  UNL1        0.0769
     10 C         138.1829  140.1171  161.8875 C.ar    1  UNL1        0.2632
     11 O         137.2357  141.2307  162.2231 O.2     1  UNL1       -0.2669
     12 N         138.5460  139.8467  160.4575 N.ar    1  UNL1       -0.2840
     13 O         138.6249  138.9713  166.9365 O.3     1  UNL1       -0.4535
     14 C         139.2595  140.1170  167.6677 C.ar    1  UNL1        0.1454
     15 C         139.9855  141.1844  166.9038 C.ar    1  UNL1        0.0398
     16 C         140.6201  142.3301  167.6351 C.ar    1  UNL1        0.0328
     17 C         140.5287  142.4083  169.1302 C.ar    1  UNL1        0.1403
     18 F         141.1633  143.5540  169.8615 F       1  UNL1       -0.2042
     19 C         139.8026  141.3410  169.8941 C.ar    1  UNL1        0.0328
     20 C         139.1680  140.1953  169.1629 C.ar    1  UNL1        0.0398
     21 C         137.9619  140.6900  159.3630 C.3     1  UNL1        0.1115
     22 C         138.5945  142.0034  159.0095 C.3     1  UNL1        0.0388
     23 C         138.6219  142.4624  157.5816 C.3     1  UNL1        0.0048
     24 C         139.2545  143.7757  157.2281 C.3     1  UNL1        0.0174
     25 C         139.8595  144.6301  158.3024 C.3     1  UNL1        0.0720
     26 N         139.8320  144.1711  159.7302 N.3     1  UNL1       -0.2739
     27 C         139.1994  142.8577  160.0837 C.3     1  UNL1        0.0739
     28 C         140.4369  145.0255  160.8044 C.3     1  UNL1        0.0576
     29 C         139.6914  146.2200  161.3215 C.3     1  UNL1        0.0173
     30 C         141.7875  144.6853  161.3616 C.3     1  UNL1        0.0173
@<TRIPOS>BOND
     1     1     2    1
     2     2     3   ar
     3     3     4   ar
     4     4     5   ar
     5     5     6   ar
     6     6     7   ar
     7     7    13    1
     8    13    14    1
     9    14    15   ar
    10    15    16   ar
    11    16    17   ar
    12    17    18    1
    13    17    19   ar
    14    19    20   ar
    15     7     8   ar
    16     8     9   ar
    17     9    10   ar
    18    10    11    2
    19    10    12   ar
    20    12    21    1
    21    22    21    1
    22    22    23    1
    23    23    24    1
    24    24    25    1
    25    25    26    1
    26    26    28    1
    27    28    29    1
    28    28    30    1
    29    26    27    1
    30    12     2   ar
    31    27    22    1
    32     9     4   ar
    33    20    14   ar
@<TRIPOS>MOLECULE
*****
 30 33 0 0 0
SMALL
GASTEIGER

@<TRIPOS>ATOM
      1 C         143.5018  143.2212  161.3631 C.3     1  UNL1        0.0719
      2 C         142.5433  143.9861  160.4992 C.ar    1  UNL1        0.1229
      3 N         142.7176  143.9926  159.0094 N.ar    1  UNL1       -0.2322
      4 C         141.7591  144.7574  158.1455 C.ar    1  UNL1        0.0874
      5 C         141.9333  144.7640  156.6557 C.ar    1  UNL1        0.0224
      6 C         140.9748  145.5288  155.7919 C.ar    1  UNL1        0.0390
      7 C         139.8421  146.2871  156.4178 C.ar    1  UNL1        0.1455
      8 C         139.6678  146.2806  157.9076 C.ar    1  UNL1        0.0437
      9 C         140.6263  145.5158  158.7714 C.ar    1  UNL1        0.0769
     10 C         140.4521  145.5092  160.2613 C.ar    1  UNL1        0.2632
     11 O         139.3194  146.2676  160.8873 O.2     1  UNL1       -0.2669
     12 N         141.4106  144.7444  161.1252 N.ar    1  UNL1       -0.2840
     13 O         138.8836  147.0520  155.5539 O.3     1  UNL1       -0.4535
     14 C         139.1618  148.4859  155.2125 C.ar    1  UNL1        0.1454
     15 C         138.5328  149.5842  156.0176 C.ar    1  UNL1        0.0398
     16 C         138.8110  151.0181  155.6762 C.ar    1  UNL1        0.0328
     17 C         139.7182  151.3537  154.5297 C.ar    1  UNL1        0.1403
     18 F         139.9963  152.7876  154.1883 F       1  UNL1       -0.2042
     19 C         140.3471  150.2554  153.7246 C.ar    1  UNL1        0.0328
     20 C         140.0689  148.8215  154.0660 C.ar    1  UNL1        0.0398
     21 C         141.2364  144.7379  162.6151 C.3     1  UNL1        0.1115
     22 C         140.0671  144.0278  163.2303 C.3     1  UNL1        0.0388
     23 C         139.0832  144.7895  164.0681 C.3     1  UNL1        0.0048
     24 C         137.9139  144.0794  164.6834 C.3     1  UNL1        0.0174
     25 C         137.7285  142.6076  164.4608 C.3     1  UNL1        0.0720
     26 N         138.7123  141.8460  163.6230 N.3     1  UNL1       -0.2739
     27 C         139.8816  142.5560  163.0078 C.3     1  UNL1        0.0739
     28 C         138.5268  140.3742  163.4005 C.3     1  UNL1        0.0576
     29 C         139.0634  139.3913  164.3984 C.3     1  UNL1        0.0173
     30 C         137.8047  139.8854  162.1799 C.3     1  UNL1        0.0173
@<TRIPOS>BOND
     1     1     2    1
     2     2     3   ar
     3     3     4   ar
     4     4     5   ar
     5     5     6   ar
     6     6     7   ar
     7     7    13    1
     8    13    14    1
     9    14    15   ar
    10    15    16   ar
    11    16    17   ar
    12    17    18    1
    13    17    19   ar
    14    19    20   ar
    15     7     8   ar
    16     8     9   ar
    17     9    10   ar
    18    10    11    2
    19    10    12   ar
    20    12    21    1
    21    22    21    1
    22    22    23    1
    23    23    24    1
    24    24    25    1
    25    25    26    1
    26    26    28    1
    27    28    29    1
    28    28    30    1
    29    26    27    1
    30    12     2   ar
    31    27    22    1
    32     9     4   ar
    33    20    14   ar
@<TRIPOS>MOLECULE
*****
 30 33 0 0 0
SMALL
GASTEIGER

@<TRIPOS>ATOM
      1 C         139.3711  138.2580  161.2099 C.3     1  UNL1        0.0719
      2 C         139.5339  138.7319  162.6238 C.ar    1  UNL1        0.1229
      3 N         138.5833  138.2642  163.6857 N.ar    1  UNL1       -0.2322
      4 C         138.7460  138.7382  165.0996 C.ar    1  UNL1        0.0874
      5 C         137.7955  138.2705  166.1614 C.ar    1  UNL1        0.0224
      6 C         137.9582  138.7444  167.5752 C.ar    1  UNL1        0.0390
      7 C         139.0715  139.6861  167.9271 C.ar    1  UNL1        0.1455
      8 C         140.0221  140.1538  166.8652 C.ar    1  UNL1        0.0437
      9 C         139.8593  139.6799  165.4514 C.ar    1  UNL1        0.0769
     10 C         140.8099  140.1476  164.3895 C.ar    1  UNL1        0.2632
     11 O         141.9232  141.0892  164.7414 O.2     1  UNL1       -0.2669
     12 N         140.6471  139.6736  162.9757 N.ar    1  UNL1       -0.2840
     13 O         139.2342  140.1601  169.3410 O.3     1  UNL1       -0.4535
     14 C         140.3781  141.0601  169.7033 C.ar    1  UNL1        0.1454
     15 C         141.7099  140.4720  170.0648 C.ar    1  UNL1        0.0398
     16 C         142.8538  141.3722  170.4271 C.ar    1  UNL1        0.0328
     17 C         142.6659  142.8604  170.4280 C.ar    1  UNL1        0.1403
     18 F         143.8098  143.7604  170.7904 F       1  UNL1       -0.2042
     19 C         141.3342  143.4484  170.0666 C.ar    1  UNL1        0.0328
     20 C         140.1903  142.5484  169.7042 C.ar    1  UNL1        0.0398
     21 C         141.5977  140.1413  161.9137 C.3     1  UNL1        0.1115
     22 C         141.4378  141.5061  161.3123 C.3     1  UNL1        0.0388
     23 C         142.1653  141.8589  160.0488 C.3     1  UNL1        0.0048
     24 C         142.0054  143.2238  159.4474 C.3     1  UNL1        0.0174
     25 C         141.1179  144.2358  160.1095 C.3     1  UNL1        0.0720
     26 N         140.3905  143.8830  161.3729 N.3     1  UNL1       -0.2739
     27 C         140.5504  142.5182  161.9743 C.3     1  UNL1        0.0739
     28 C         139.5031  144.8950  162.0349 C.3     1  UNL1        0.0576
     29 C         138.3615  144.4422  162.8963 C.3     1  UNL1        0.0173
     30 C         139.7572  146.3599  161.8356 C.3     1  UNL1        0.0173
@<TRIPOS>BOND
     1     1     2    1
     2     2     3   ar
     3     3     4   ar
     4     4     5   ar
     5     5     6   ar
     6     6     7   ar
     7     7    13    1
     8    13    14    1
     9    14    15   ar
    10    15    16   ar
    11    16    17   ar
    12    17    18    1
    13    17    19   ar
    14    19    20   ar
    15     7     8   ar
    16     8     9   ar
    17     9    10   ar
    18    10    11    2
    19    10    12   ar
    20    12    21    1
    21    22    21    1
    22    22    23    1
    23    23    24    1
    24    24    25    1
    25    25    26    1
    26    26    28    1
    27    28    29    1
    28    28    30    1
    29    26    27    1
    30    12     2   ar
    31    27    22    1
    32     9     4   ar
    33    20    14   ar
@<TRIPOS>MOLECULE
*****
 30 33 0 0 0
SMALL
GASTEIGER

@<TRIPOS>ATOM
      1 C         138.1447  142.4166  160.6072 C.3     1  UNL1        0.0719
      2 C         138.6012  142.1881  162.0177 C.ar    1  UNL1        0.1229
      3 N         138.2476  140.9124  162.7231 N.ar    1  UNL1       -0.2322
      4 C         138.7040  140.6839  164.1336 C.ar    1  UNL1        0.0874
      5 C         138.3504  139.4082  164.8390 C.ar    1  UNL1        0.0224
      6 C         138.8068  139.1798  166.2494 C.ar    1  UNL1        0.0390
      7 C         139.6168  140.2270  166.9545 C.ar    1  UNL1        0.1455
      8 C         139.9704  141.5027  166.2492 C.ar    1  UNL1        0.0437
      9 C         139.5140  141.7311  164.8387 C.ar    1  UNL1        0.0769
     10 C         139.8676  143.0069  164.1333 C.ar    1  UNL1        0.2632
     11 O         140.6776  144.0541  164.8384 O.2     1  UNL1       -0.2669
     12 N         139.4112  143.2353  162.7228 N.ar    1  UNL1       -0.2840
     13 O         140.0732  139.9985  168.3651 O.3     1  UNL1       -0.4535
     14 C         140.9853  140.9879  169.0278 C.ar    1  UNL1        0.1454
     15 C         140.4310  142.2707  169.5730 C.ar    1  UNL1        0.0398
     16 C         141.3431  143.2601  170.2358 C.ar    1  UNL1        0.0328
     17 C         142.8094  142.9667  170.3534 C.ar    1  UNL1        0.1403
     18 F         143.7214  143.9561  171.0161 F       1  UNL1       -0.2042
     19 C         143.3636  141.6839  169.8082 C.ar    1  UNL1        0.0328
     20 C         142.4516  140.6945  169.1454 C.ar    1  UNL1        0.0398
     21 C         139.7647  144.5111  162.0174 C.3     1  UNL1        0.1115
     22 C         140.6729  144.4813  160.8239 C.3     1  UNL1        0.0388
     23 C         140.3277  145.2752  159.5989 C.3     1  UNL1        0.0048
     24 C         141.2359  145.2454  158.4054 C.3     1  UNL1        0.0174
     25 C         142.4892  144.4217  158.4370 C.3     1  UNL1        0.0720
     26 N         142.8342  143.6279  159.6620 N.3     1  UNL1       -0.2739
     27 C         141.9261  143.6577  160.8555 C.3     1  UNL1        0.0739
     28 C         144.0875  142.8043  159.6935 C.3     1  UNL1        0.0576
     29 C         144.6452  142.3372  161.0053 C.3     1  UNL1        0.0173
     30 C         144.7830  142.4477  158.4132 C.3     1  UNL1        0.0173
@<TRIPOS>BOND
     1     1     2    1
     2     2     3   ar
     3     3     4   ar
     4     4     5   ar
     5     5     6   ar
     6     6     7   ar
     7     7    13    1
     8    13    14    1
     9    14    15   ar
    10    15    16   ar
    11    16    17   ar
    12    17    18    1
    13    17    19   ar
    14    19    20   ar
    15     7     8   ar
    16     8     9   ar
    17     9    10   ar
    18    10    11    2
    19    10    12   ar
    20    12    21    1
    21    22    21    1
    22    22    23    1
    23    23    24    1
    24    24    25    1
    25    25    26    1
    26    26    28    1
    27    28    29    1
    28    28    30    1
    29    26    27    1
    30    12     2   ar
    31    27    22    1
    32     9     4   ar
    33    20    14   ar
@<TRIPOS>MOLECULE
*****
 30 33 0 0 0
SMALL
GASTEIGER

@<TRIPOS>ATOM
      1 C         144.9467  140.4461  164.3219 C.3     1  UNL1        0.0719
      2 C         144.1451  139.8384  163.2091 C.ar    1  UNL1        0.1229
      3 N         144.3802  140.2714  161.7924 N.ar    1  UNL1       -0.2322
      4 C         143.5786  139.6637  160.6796 C.ar    1  UNL1        0.0874
      5 C         143.8137  140.0967  159.2628 C.ar    1  UNL1        0.0224
      6 C         143.0121  139.4890  158.1501 C.ar    1  UNL1        0.0390
      7 C         141.9754  138.4484  158.4541 C.ar    1  UNL1        0.1455
      8 C         141.7403  138.0154  159.8709 C.ar    1  UNL1        0.0437
      9 C         142.5419  138.6231  160.9836 C.ar    1  UNL1        0.0769
     10 C         142.3068  138.1901  162.4004 C.ar    1  UNL1        0.2632
     11 O         141.2701  137.1495  162.7045 O.2     1  UNL1       -0.2669
     12 N         143.1084  138.7978  163.5132 N.ar    1  UNL1       -0.2840
     13 O         141.1738  137.8407  157.3413 O.3     1  UNL1       -0.4535
     14 C         141.6971  136.6411  156.6084 C.ar    1  UNL1        0.1454
     15 C         140.9293  136.0759  155.4504 C.ar    1  UNL1        0.0398
     16 C         141.4527  134.8762  154.7175 C.ar    1  UNL1        0.0328
     17 C         142.7437  134.2419  155.1427 C.ar    1  UNL1        0.1403
     18 F         143.2670  133.0423  154.4098 F       1  UNL1       -0.2042
     19 C         143.5115  134.8072  156.3007 C.ar    1  UNL1        0.0328
     20 C         142.9882  136.0068  157.0336 C.ar    1  UNL1        0.0398
     21 C         142.8733  138.3648  164.9300 C.3     1  UNL1        0.1115
     22 C         141.9170  139.1273  165.7984 C.3     1  UNL1        0.0388
     23 C         140.4431  139.0632  165.5271 C.3     1  UNL1        0.0048
     24 C         139.4868  139.8257  166.3954 C.3     1  UNL1        0.0174
     25 C         140.0044  140.6524  167.5351 C.3     1  UNL1        0.0720
     26 N         141.4782  140.7165  167.8063 N.3     1  UNL1       -0.2739
     27 C         142.4345  139.9540  166.9380 C.3     1  UNL1        0.0739
     28 C         141.9958  141.5432  168.9459 C.3     1  UNL1        0.0576
     29 C         143.1328  141.0376  169.7834 C.3     1  UNL1        0.0173
     30 C         141.3762  142.8755  169.2480 C.3     1  UNL1        0.0173
@<TRIPOS>BOND
     1     1     2    1
     2     2     3   ar
     3     3     4   ar
     4     4     5   ar
     5     5     6   ar
     6     6     7   ar
     7     7    13    1
     8    13    14    1
     9    14    15   ar
    10    15    16   ar
    11    16    17   ar
    12    17    18    1
    13    17    19   ar
    14    19    20   ar
    15     7     8   ar
    16     8     9   ar
    17     9    10   ar
    18    10    11    2
    19    10    12   ar
    20    12    21    1
    21    22    21    1
    22    22    23    1
    23    23    24    1
    24    24    25    1
    25    25    26    1
    26    26    28    1
    27    28    29    1
    28    28    30    1
    29    26    27    1
    30    12     2   ar
    31    27    22    1
    32     9     4   ar
    33    20    14   ar
@<TRIPOS>MOLECULE
*****
 30 33 0 0 0
SMALL
GASTEIGER

@<TRIPOS>ATOM
      1 C         138.6362  144.6691  162.9972 C.3     1  UNL1        0.0719
      2 C         138.6169  143.4769  162.0871 C.ar    1  UNL1        0.1229
      3 N         139.0946  143.6064  160.6711 N.ar    1  UNL1       -0.2322
      4 C         139.0753  142.4141  159.7610 C.ar    1  UNL1        0.0874
      5 C         139.5530  142.5436  158.3451 C.ar    1  UNL1        0.0224
      6 C         139.5337  141.3514  157.4351 C.ar    1  UNL1        0.0390
      7 C         139.0367  140.0297  157.9410 C.ar    1  UNL1        0.1455
      8 C         138.5590  139.9002  159.3570 C.ar    1  UNL1        0.0437
      9 C         138.5783  141.0924  160.2670 C.ar    1  UNL1        0.0769
     10 C         138.1006  140.9629  161.6830 C.ar    1  UNL1        0.2632
     11 O         137.6036  139.6412  162.1890 O.2     1  UNL1       -0.2669
     12 N         138.1199  142.1551  162.5930 N.ar    1  UNL1       -0.2840
     13 O         139.0174  138.8374  157.0309 O.3     1  UNL1       -0.4535
     14 C         140.2282  137.9590  156.9198 C.ar    1  UNL1        0.1454
     15 C         140.2624  136.8535  155.9065 C.ar    1  UNL1        0.0398
     16 C         141.4732  135.9751  155.7954 C.ar    1  UNL1        0.0328
     17 C         142.6498  136.2022  156.6976 C.ar    1  UNL1        0.1403
     18 F         143.8606  135.3238  156.5865 F       1  UNL1       -0.2042
     19 C         142.6156  137.3076  157.7109 C.ar    1  UNL1        0.0328
     20 C         141.4049  138.1860  157.8220 C.ar    1  UNL1        0.0398
     21 C         137.6422  142.0257  164.0091 C.3     1  UNL1        0.1115
     22 C         138.5011  141.3413  165.0307 C.3     1  UNL1        0.0388
     23 C         138.1666  139.9502  165.4813 C.3     1  UNL1        0.0048
     24 C         139.0255  139.2658  166.5030 C.3     1  UNL1        0.0174
     25 C         140.2190  139.9726  167.0741 C.3     1  UNL1        0.0720
     26 N         140.5536  141.3636  166.6235 N.3     1  UNL1       -0.2739
     27 C         139.6946  142.0480  165.6018 C.3     1  UNL1        0.0739
     28 C         141.7470  142.0703  167.1946 C.3     1  UNL1        0.0576
     29 C         141.7507  142.4930  168.6338 C.3     1  UNL1        0.0173
     30 C         142.9370  142.3542  166.3265 C.3     1  UNL1        0.0173
@<TRIPOS>BOND
     1     1     2    1
     2     2     3   ar
     3     3     4   ar
     4     4     5   ar
     5     5     6   ar
     6     6     7   ar
     7     7    13    1
     8    13    14    1
     9    14    15   ar
    10    15    16   ar
    11    16    17   ar
    12    17    18    1
    13    17    19   ar
    14    19    20   ar
    15     7     8   ar
    16     8     9   ar
    17     9    10   ar
    18    10    11    2
    19    10    12   ar
    20    12    21    1
    21    22    21    1
    22    22    23    1
    23    23    24    1
    24    24    25    1
    25    25    26    1
    26    26    28    1
    27    28    29    1
    28    28    30    1
    29    26    27    1
    30    12     2   ar
    31    27    22    1
    32     9     4   ar
    33    20    14   ar
@<TRIPOS>MOLECULE
*****
 30 33 0 0 0
SMALL
GASTEIGER

@<TRIPOS>ATOM
      1 C         138.4560  142.7467  157.9515 C.3     1  UNL1        0.0719
      2 C         138.4471  142.0113  159.2589 C.ar    1  UNL1        0.1229
      3 N         138.2021  142.7568  160.5371 N.ar    1  UNL1       -0.2322
      4 C         138.1932  142.0214  161.8445 C.ar    1  UNL1        0.0874
      5 C         137.9481  142.7670  163.1228 C.ar    1  UNL1        0.0224
      6 C         137.9393  142.0315  164.4300 C.ar    1  UNL1        0.0390
      7 C         138.1754  140.5505  164.4590 C.ar    1  UNL1        0.1455
      8 C         138.4205  139.8050  163.1808 C.ar    1  UNL1        0.0437
      9 C         138.4294  140.5404  161.8735 C.ar    1  UNL1        0.0769
     10 C         138.6744  139.7948  160.5951 C.ar    1  UNL1        0.2632
     11 O         138.9106  138.3138  160.6241 O.2     1  UNL1       -0.2669
     12 N         138.6833  140.5303  159.2879 N.ar    1  UNL1       -0.2840
     13 O         138.1666  139.8151  165.7664 O.3     1  UNL1       -0.4535
     14 C         139.3753  139.8486  166.6540 C.ar    1  UNL1        0.1454
     15 C         140.7485  139.7856  166.0538 C.ar    1  UNL1        0.0398
     16 C         141.9572  139.8192  166.9415 C.ar    1  UNL1        0.0328
     17 C         141.7927  139.9157  168.4293 C.ar    1  UNL1        0.1403
     18 F         143.0014  139.9492  169.3169 F       1  UNL1       -0.2042
     19 C         140.4194  139.9787  169.0295 C.ar    1  UNL1        0.0328
     20 C         139.2107  139.9452  168.1419 C.ar    1  UNL1        0.0398
     21 C         138.9283  139.7847  158.0095 C.3     1  UNL1        0.1115
     22 C         140.2839  139.2089  157.7251 C.3     1  UNL1        0.0388
     23 C         141.5169  140.0055  158.0338 C.3     1  UNL1        0.0048
     24 C         142.8725  139.4297  157.7494 C.3     1  UNL1        0.0174
     25 C         142.9951  138.0574  157.1564 C.3     1  UNL1        0.0720
     26 N         141.7621  137.2608  156.8477 N.3     1  UNL1       -0.2739
     27 C         140.4066  137.8366  157.1321 C.3     1  UNL1        0.0739
     28 C         141.8848  135.8885  156.2547 C.3     1  UNL1        0.0576
     29 C         140.9857  135.4756  155.1273 C.3     1  UNL1        0.0173
     30 C         142.9066  134.9291  156.7891 C.3     1  UNL1        0.0173
@<TRIPOS>BOND
     1     1     2    1
     2     2     3   ar
     3     3     4   ar
     4     4     5   ar
     5     5     6   ar
     6     6     7   ar
     7     7    13    1
     8    13    14    1
     9    14    15   ar
    10    15    16   ar
    11    16    17   ar
    12    17    18    1
    13    17    19   ar
    14    19    20   ar
    15     7     8   ar
    16     8     9   ar
    17     9    10   ar
    18    10    11    2
    19    10    12   ar
    20    12    21    1
    21    22    21    1
    22    22    23    1
    23    23    24    1
    24    24    25    1
    25    25    26    1
    26    26    28    1
    27    28    29    1
    28    28    30    1
    29    26    27    1
    30    12     2   ar
    31    27    22    1
    32     9     4   ar
    33    20    14   ar
@<TRIPOS>MOLECULE
*****
 30 33 0 0 0
SMALL
GASTEIGER

@<TRIPOS>ATOM
      1 C         138.8230  138.6288  164.4053 C.3     1  UNL1        0.0719
      2 C         139.7915  138.5084  163.2661 C.ar    1  UNL1        0.1229
      3 N         139.2916  138.5227  161.8520 N.ar    1  UNL1       -0.2322
      4 C         140.2602  138.4022  160.7129 C.ar    1  UNL1        0.0874
      5 C         139.7603  138.4166  159.2987 C.ar    1  UNL1        0.0224
      6 C         140.7288  138.2961  158.1597 C.ar    1  UNL1        0.0390
      7 C         142.1972  138.1613  158.4348 C.ar    1  UNL1        0.1455
      8 C         142.6971  138.1470  159.8490 C.ar    1  UNL1        0.0437
      9 C         141.7286  138.2674  160.9880 C.ar    1  UNL1        0.0769
     10 C         142.2284  138.2531  162.4022 C.ar    1  UNL1        0.2632
     11 O         143.6968  138.1183  162.6774 O.2     1  UNL1       -0.2669
     12 N         141.2599  138.3736  163.5413 N.ar    1  UNL1       -0.2840
     13 O         143.1657  138.0409  157.2957 O.3     1  UNL1       -0.4535
     14 C         143.0155  136.9313  156.2976 C.ar    1  UNL1        0.1454
     15 C         142.4981  137.2259  154.9208 C.ar    1  UNL1        0.0398
     16 C         142.3479  136.1162  153.9227 C.ar    1  UNL1        0.0328
     17 C         142.7149  134.7120  154.3015 C.ar    1  UNL1        0.1403
     18 F         142.5646  133.6024  153.3034 F       1  UNL1       -0.2042
     19 C         143.2322  134.4174  155.6783 C.ar    1  UNL1        0.0328
     20 C         143.3825  135.5270  156.6763 C.ar    1  UNL1        0.0398
     21 C         141.7597  138.3592  164.9555 C.3     1  UNL1        0.1115
     22 C         141.9949  139.6509  165.6810 C.3     1  UNL1        0.0388
     23 C         143.1127  140.5567  165.2567 C.3     1  UNL1        0.0048
     24 C         143.3478  141.8483  165.9822 C.3     1  UNL1        0.0174
     25 C         142.4651  142.2342  167.1319 C.3     1  UNL1        0.0720
     26 N         141.3473  141.3284  167.5562 N.3     1  UNL1       -0.2739
     27 C         141.1122  140.0368  166.8307 C.3     1  UNL1        0.0739
     28 C         140.4646  141.7143  168.7059 C.3     1  UNL1        0.0576
     29 C         139.5465  140.6995  169.3202 C.3     1  UNL1        0.0173
     30 C         140.4999  143.1151  169.2414 C.3     1  UNL1        0.0173
@<TRIPOS>BOND
     1     1     2    1
     2     2     3   ar
     3     3     4   ar
     4     4     5   ar
     5     5     6   ar
     6     6     7   ar
     7     7    13    1
     8    13    14    1
     9    14    15   ar
    10    15    16   ar
    11    16    17   ar
    12    17    18    1
    13    17    19   ar
    14    19    20   ar
    15     7     8   ar
    16     8     9   ar
    17     9    10   ar
    18    10    11    2
    19    10    12   ar
    20    12    21    1
    21    22    21    1
    22    22    23    1
    23    23    24    1
    24    24    25    1
    25    25    26    1
    26    26    28    1
    27    28    29    1
    28    28    30    1
    29    26    27    1
    30    12     2   ar
    31    27    22    1
    32     9     4   ar
    33    20    14   ar
