@<TRIPOS>MOLECULE
*****
 32 34 0 0 0
SMALL
GASTEIGER

@<TRIPOS>ATOM
      1 C         139.9863  138.2828  162.2159 C.ar    1  UNL1        0.1987
      2 N         141.0219  137.2056  162.3475 N.ar    1  UNL1       -0.0331
      3 O         141.1369  136.8480  163.7997 O.2     1  UNL1       -0.2400
      4 N         140.1723  137.7042  164.5656 N.ar    1  UNL1       -0.0391
      5 C         139.4612  138.5909  163.5868 C.ar    1  UNL1        0.2426
      6 C         138.4097  139.6073  163.9203 C.2     1  UNL1        0.3943
      7 N         137.7003  140.3410  162.8209 N.2     1  UNL1        0.1539
      8 O         136.6488  141.3574  163.1544 O.2     1  UNL1       -0.3110
      9 H         136.2056  141.8157  162.4677 H       1  UNL1        0.3605
     10 N         138.0676  139.8901  165.3531 N.pl3   1  UNL1       -0.1942
     11 H         137.1898  139.6246  165.7112 H       1  UNL1        0.2987
     12 C         139.0629  140.5774  166.2403 C.ar    1  UNL1        0.1364
     13 C         139.6663  141.8844  165.8189 C.ar    1  UNL1        0.0425
     14 C         140.6616  142.5716  166.7062 C.ar    1  UNL1        0.0336
     15 C         141.0533  141.9518  168.0148 C.ar    1  UNL1        0.1465
     16 F         142.0486  142.6391  168.9020 F       1  UNL1       -0.2036
     17 C         140.4499  140.6448  168.4361 C.ar    1  UNL1        0.0654
     18 BR        140.8416  140.0250  169.7447 Br      1  UNL1       -0.0465
     19 C         139.4546  139.9576  167.5489 C.ar    1  UNL1        0.0491
     20 N         139.5521  138.9369  160.9378 N.pl3   1  UNL1       -0.3123
     21 H         138.6915  138.6920  160.5272 H       1  UNL1        0.1484
     22 C         140.4290  139.9640  160.2853 C.3     1  UNL1        0.1150
     23 C         139.8390  141.2552  159.8008 C.3     1  UNL1        0.1504
     24 C         139.5951  143.9541  162.5797 C.ar    1  UNL1        0.1274
     25 C         140.3753  142.9223  161.8204 C.ar    1  UNL1        0.1156
     26 N         139.4696  142.3265  160.7836 N.ar    1  UNL1       -0.2287
     27 N         138.1297  142.9903  160.9022 N.ar    1  UNL1       -0.0640
     28 N         138.2072  143.9962  162.0122 N.ar    1  UNL1       -0.1307
     29 C         141.5605  145.1834  163.7529 C.3     1  UNL1        0.0384
     30 C         140.1120  144.7961  163.7083 C.3     1  UNL1        0.1536
     31 O         139.1804  145.2509  164.7924 O.3     1  UNL1       -0.3784
     32 H         139.6714  145.7816  165.4390 H       1  UNL1        0.2109
@<TRIPOS>BOND
     1    29    30    1
     2    30    31    1
     3    30    24    1
     4    24    25   ar
     5    25    26   ar
     6    26    23    1
     7    23    22    1
     8    22    20    1
     9    20     1    1
    10     1     2   ar
    11     2     3   ar
    12     3     4   ar
    13     4     5   ar
    14     5     6    1
    15     6     7    2
    16     7     8    1
    17     6    10    1
    18    10    12    1
    19    12    13   ar
    20    13    14   ar
    21    14    15   ar
    22    15    16    1
    23    15    17   ar
    24    17    18    1
    25    17    19   ar
    26    26    27   ar
    27    27    28   ar
    28    28    24   ar
    29     5     1   ar
    30    19    12   ar
    31    31    32    1
    32    20    21    1
    33     8     9    1
    34    10    11    1
@<TRIPOS>MOLECULE
*****
 32 34 0 0 0
SMALL
GASTEIGER

@<TRIPOS>ATOM
      1 C         138.1480  142.6751  161.3748 C.ar    1  UNL1        0.1987
      2 N         137.3551  141.4360  161.6681 N.ar    1  UNL1       -0.0331
      3 O         136.9623  141.4689  163.1154 O.2     1  UNL1       -0.2400
      4 N         137.5124  142.7283  163.7165 N.ar    1  UNL1       -0.0391
      5 C         138.2452  143.4738  162.6407 C.ar    1  UNL1        0.2426
      6 C         138.9512  144.7874  162.8025 C.2     1  UNL1        0.3943
      7 N         138.9371  145.7889  161.6859 N.2     1  UNL1        0.1539
      8 O         139.6432  147.1024  161.8477 O.2     1  UNL1       -0.3110
      9 H         139.6344  147.7281  161.1502 H       1  UNL1        0.3605
     10 N         139.6712  145.0994  164.0809 N.pl3   1  UNL1       -0.1942
     11 H         139.2293  145.6390  164.7757 H       1  UNL1        0.2987
     12 C         141.0646  144.5892  164.3007 C.ar    1  UNL1        0.1364
     13 C         142.2365  145.3489  163.7535 C.ar    1  UNL1        0.0425
     14 C         143.6298  144.8386  163.9733 C.ar    1  UNL1        0.0336
     15 C         143.8512  143.5687  164.7403 C.ar    1  UNL1        0.1465
     16 F         145.2446  143.0585  164.9601 F       1  UNL1       -0.2036
     17 C         142.6793  142.8090  165.2875 C.ar    1  UNL1        0.0654
     18 BR        142.9007  141.5391  166.0545 Br      1  UNL1       -0.0465
     19 C         141.2860  143.3192  165.0677 C.ar    1  UNL1        0.0491
     20 N         138.7398  143.0497  160.0483 N.pl3   1  UNL1       -0.3123
     21 H         138.1785  143.4783  159.3623 H       1  UNL1        0.1484
     22 C         140.1866  142.7715  159.7670 C.3     1  UNL1        0.1150
     23 C         140.6081  141.4193  159.2731 C.3     1  UNL1        0.1504
     24 C         139.9286  138.4364  161.6619 C.ar    1  UNL1        0.1274
     25 C         140.6503  139.7077  161.3259 C.ar    1  UNL1        0.1156
     26 N         140.1551  140.1834  159.9922 N.ar    1  UNL1       -0.2287
     27 N         139.1272  139.2060  159.5041 N.ar    1  UNL1       -0.0640
     28 N         138.9873  138.1264  160.5360 N.ar    1  UNL1       -0.1307
     29 C         139.1269  137.7253  164.0287 C.3     1  UNL1        0.0384
     30 C         140.1154  137.6188  162.9054 C.3     1  UNL1        0.1536
     31 O         141.2907  136.6946  163.0259 O.3     1  UNL1       -0.3784
     32 H         141.2618  136.2451  163.8850 H       1  UNL1        0.2109
@<TRIPOS>BOND
     1    29    30    1
     2    30    31    1
     3    30    24    1
     4    24    25   ar
     5    25    26   ar
     6    26    23    1
     7    23    22    1
     8    22    20    1
     9    20     1    1
    10     1     2   ar
    11     2     3   ar
    12     3     4   ar
    13     4     5   ar
    14     5     6    1
    15     6     7    2
    16     7     8    1
    17     6    10    1
    18    10    12    1
    19    12    13   ar
    20    13    14   ar
    21    14    15   ar
    22    15    16    1
    23    15    17   ar
    24    17    18    1
    25    17    19   ar
    26    26    27   ar
    27    27    28   ar
    28    28    24   ar
    29     5     1   ar
    30    19    12   ar
    31    31    32    1
    32    20    21    1
    33     8     9    1
    34    10    11    1
@<TRIPOS>MOLECULE
*****
 32 34 0 0 0
SMALL
GASTEIGER

@<TRIPOS>ATOM
      1 C         141.9096  145.1184  163.1344 C.ar    1  UNL1        0.1987
      2 N         143.3974  145.1361  162.9446 N.ar    1  UNL1       -0.0331
      3 O         143.9905  144.0827  163.8327 O.2     1  UNL1       -0.2400
      4 N         142.8692  143.4141  164.5714 N.ar    1  UNL1       -0.0391
      5 C         141.5831  144.0542  164.1398 C.ar    1  UNL1        0.2426
      6 C         140.2114  143.6933  164.6280 C.2     1  UNL1        0.3943
      7 N         139.1489  144.7476  164.7261 N.2     1  UNL1        0.1539
      8 O         137.7772  144.3868  165.2143 O.2     1  UNL1       -0.3110
      9 H         137.1135  145.0454  165.2756 H       1  UNL1        0.3605
     10 N         139.9022  142.2783  165.0179 N.pl3   1  UNL1       -0.1942
     11 H         139.6665  141.6177  164.3271 H       1  UNL1        0.2987
     12 C         139.9522  141.8699  166.4604 C.ar    1  UNL1        0.1364
     13 C         139.5602  140.4782  166.8598 C.ar    1  UNL1        0.0425
     14 C         139.6102  140.0698  168.3022 C.ar    1  UNL1        0.0336
     15 C         140.0521  141.0530  169.3452 C.ar    1  UNL1        0.1465
     16 F         140.1020  140.6446  170.7877 F       1  UNL1       -0.2036
     17 C         140.4440  142.4447  168.9458 C.ar    1  UNL1        0.0654
     18 BR        140.8860  143.4280  169.9889 Br      1  UNL1       -0.0465
     19 C         140.3941  142.8531  167.5034 C.ar    1  UNL1        0.0491
     20 N         140.9216  146.0087  162.4406 N.pl3   1  UNL1       -0.3123
     21 H         140.6344  146.8496  162.8644 H       1  UNL1        0.1484
     22 C         140.3713  145.6178  161.1011 C.3     1  UNL1        0.1150
     23 C         140.4046  144.1826  160.6663 C.3     1  UNL1        0.1504
     24 C         138.3788  141.1456  161.9849 C.ar    1  UNL1        0.1274
     25 C         139.6249  141.7299  161.3884 C.ar    1  UNL1        0.1156
     26 N         139.4134  143.2061  161.2264 N.ar    1  UNL1       -0.2287
     27 N         138.0364  143.5341  161.7228 N.ar    1  UNL1       -0.0640
     28 N         137.3971  142.2607  162.1916 N.ar    1  UNL1       -0.1307
     29 C         138.9081  139.0636  163.4461 C.3     1  UNL1        0.0384
     30 C         138.1540  139.7002  162.3165 C.3     1  UNL1        0.1536
     31 O         137.1749  138.8912  161.5185 O.3     1  UNL1       -0.3784
     32 H         137.1502  137.9839  161.8608 H       1  UNL1        0.2109
@<TRIPOS>BOND
     1    29    30    1
     2    30    31    1
     3    30    24    1
     4    24    25   ar
     5    25    26   ar
     6    26    23    1
     7    23    22    1
     8    22    20    1
     9    20     1    1
    10     1     2   ar
    11     2     3   ar
    12     3     4   ar
    13     4     5   ar
    14     5     6    1
    15     6     7    2
    16     7     8    1
    17     6    10    1
    18    10    12    1
    19    12    13   ar
    20    13    14   ar
    21    14    15   ar
    22    15    16    1
    23    15    17   ar
    24    17    18    1
    25    17    19   ar
    26    26    27   ar
    27    27    28   ar
    28    28    24   ar
    29     5     1   ar
    30    19    12   ar
    31    31    32    1
    32    20    21    1
    33     8     9    1
    34    10    11    1
@<TRIPOS>MOLECULE
*****
 32 34 0 0 0
SMALL
GASTEIGER

@<TRIPOS>ATOM
      1 C         137.7155  142.1228  162.9816 C.ar    1  UNL1        0.1987
      2 N         137.5266  141.5751  161.5981 N.ar    1  UNL1       -0.0331
      3 O         138.0965  142.5651  160.6258 O.2     1  UNL1       -0.2400
      4 N         138.6375  143.7246  161.4086 N.ar    1  UNL1       -0.0391
      5 C         138.4020  143.4513  162.8646 C.ar    1  UNL1        0.2426
      6 C         138.7858  144.3489  164.0035 C.2     1  UNL1        0.3943
      7 N         137.8244  144.5827  165.1310 N.2     1  UNL1        0.1539
      8 O         138.2081  145.4802  166.2699 O.2     1  UNL1       -0.3110
      9 H         137.6076  145.6263  166.9742 H       1  UNL1        0.3605
     10 N         140.1308  145.0127  164.0149 N.pl3   1  UNL1       -0.1942
     11 H         140.1954  145.9946  163.9825 H       1  UNL1        0.2987
     12 C         141.3774  144.1806  164.0758 C.ar    1  UNL1        0.1364
     13 C         141.7137  143.4239  165.3264 C.ar    1  UNL1        0.0425
     14 C         142.9602  142.5918  165.3872 C.ar    1  UNL1        0.0336
     15 C         143.8705  142.5165  164.1973 C.ar    1  UNL1        0.1465
     16 F         145.1171  141.6843  164.2581 F       1  UNL1       -0.2036
     17 C         143.5342  143.2732  162.9467 C.ar    1  UNL1        0.0654
     18 BR        144.4444  143.1979  161.7568 Br      1  UNL1       -0.0465
     19 C         142.2876  144.1053  162.8859 C.ar    1  UNL1        0.0491
     20 N         137.2921  141.4586  164.2582 N.pl3   1  UNL1       -0.3123
     21 H         136.4203  141.6761  164.6606 H       1  UNL1        0.1484
     22 C         138.1968  140.4632  164.9217 C.3     1  UNL1        0.1150
     23 C         139.4190  140.9319  165.6541 C.3     1  UNL1        0.1504
     24 C         140.2833  140.7939  169.4357 C.ar    1  UNL1        0.1274
     25 C         140.4449  141.4072  168.0764 C.ar    1  UNL1        0.1156
     26 N         139.5668  140.6547  167.1209 N.ar    1  UNL1       -0.2287
     27 N         138.8625  139.5764  167.8898 N.ar    1  UNL1       -0.0640
     28 N         139.3053  139.6624  169.3203 N.ar    1  UNL1       -0.1307
     29 C         142.0555  142.2758  170.6244 C.3     1  UNL1        0.0384
     30 C         140.9776  141.2346  170.6900 C.3     1  UNL1        0.1536
     31 O         140.5943  140.6343  172.0100 O.3     1  UNL1       -0.3784
     32 H         141.1355  141.0265  172.7130 H       1  UNL1        0.2109
@<TRIPOS>BOND
     1    29    30    1
     2    30    31    1
     3    30    24    1
     4    24    25   ar
     5    25    26   ar
     6    26    23    1
     7    23    22    1
     8    22    20    1
     9    20     1    1
    10     1     2   ar
    11     2     3   ar
    12     3     4   ar
    13     4     5   ar
    14     5     6    1
    15     6     7    2
    16     7     8    1
    17     6    10    1
    18    10    12    1
    19    12    13   ar
    20    13    14   ar
    21    14    15   ar
    22    15    16    1
    23    15    17   ar
    24    17    18    1
    25    17    19   ar
    26    26    27   ar
    27    27    28   ar
    28    28    24   ar
    29     5     1   ar
    30    19    12   ar
    31    31    32    1
    32    20    21    1
    33     8     9    1
    34    10    11    1
@<TRIPOS>MOLECULE
*****
 32 34 0 0 0
SMALL
GASTEIGER

@<TRIPOS>ATOM
      1 C         139.7748  144.2914  161.6699 C.ar    1  UNL1        0.1987
      2 N         140.8023  145.3842  161.6555 N.ar    1  UNL1       -0.0331
      3 O         141.1831  145.6810  163.0757 O.2     1  UNL1       -0.2400
      4 N         140.3910  144.7717  163.9677 N.ar    1  UNL1       -0.0391
      5 C         139.5206  143.9129  163.0989 C.ar    1  UNL1        0.2426
      6 C         138.5640  142.8603  163.5754 C.2     1  UNL1        0.3943
      7 N         137.5405  142.2960  162.6350 N.2     1  UNL1        0.1539
      8 O         136.5839  141.2434  163.1115 O.2     1  UNL1       -0.3110
      9 H         135.9446  140.8909  162.5242 H       1  UNL1        0.3605
     10 N         138.6309  142.3721  164.9921 N.pl3   1  UNL1       -0.1942
     11 H         137.9548  142.6637  165.6456 H       1  UNL1        0.2987
     12 C         139.7277  141.4394  165.4130 C.ar    1  UNL1        0.1364
     13 C         139.7460  140.8834  166.8060 C.ar    1  UNL1        0.0425
     14 C         140.8429  139.9508  167.2269 C.ar    1  UNL1        0.0336
     15 C         141.9214  139.5743  166.2548 C.ar    1  UNL1        0.1465
     16 F         143.0183  138.6416  166.6757 F       1  UNL1       -0.2036
     17 C         141.9031  140.1303  164.8618 C.ar    1  UNL1        0.0654
     18 BR        142.9817  139.7538  163.8897 Br      1  UNL1       -0.0465
     19 C         140.8063  141.0629  164.4409 C.ar    1  UNL1        0.0491
     20 N         139.1171  143.6839  160.4664 N.pl3   1  UNL1       -0.3123
     21 H         138.2631  144.0462  160.1368 H       1  UNL1        0.1484
     22 C         139.7604  142.5245  159.7653 C.3     1  UNL1        0.1150
     23 C         138.9391  141.3280  159.3857 C.3     1  UNL1        0.1504
     24 C         139.0936  138.5524  162.0945 C.ar    1  UNL1        0.1274
     25 C         139.7566  139.6115  161.2647 C.ar    1  UNL1        0.1156
     26 N         138.7139  140.2271  160.3792 N.ar    1  UNL1       -0.2287
     27 N         137.4065  139.5484  160.6620 N.ar    1  UNL1       -0.0640
     28 N         137.6411  138.5134  161.7220 N.ar    1  UNL1       -0.1307
     29 C         139.2144  137.6036  164.5102 C.3     1  UNL1        0.0384
     30 C         139.7651  137.6847  163.1172 C.3     1  UNL1        0.1536
     31 O         140.9873  136.8979  162.7471 O.3     1  UNL1       -0.3784
     32 H         141.2933  136.3943  163.5177 H       1  UNL1        0.2109
@<TRIPOS>BOND
     1    29    30    1
     2    30    31    1
     3    30    24    1
     4    24    25   ar
     5    25    26   ar
     6    26    23    1
     7    23    22    1
     8    22    20    1
     9    20     1    1
    10     1     2   ar
    11     2     3   ar
    12     3     4   ar
    13     4     5   ar
    14     5     6    1
    15     6     7    2
    16     7     8    1
    17     6    10    1
    18    10    12    1
    19    12    13   ar
    20    13    14   ar
    21    14    15   ar
    22    15    16    1
    23    15    17   ar
    24    17    18    1
    25    17    19   ar
    26    26    27   ar
    27    27    28   ar
    28    28    24   ar
    29     5     1   ar
    30    19    12   ar
    31    31    32    1
    32    20    21    1
    33     8     9    1
    34    10    11    1
@<TRIPOS>MOLECULE
*****
 32 34 0 0 0
SMALL
GASTEIGER

@<TRIPOS>ATOM
      1 C         140.5405  137.8002  163.8220 C.ar    1  UNL1        0.1987
      2 N         140.8011  137.3781  162.4065 N.ar    1  UNL1       -0.0331
      3 O         139.5777  137.6907  161.5968 O.2     1  UNL1       -0.2400
      4 N         138.5610  138.3060  162.5121 N.ar    1  UNL1       -0.0391
      5 C         139.1560  138.3737  163.8873 C.ar    1  UNL1        0.2426
      6 C         138.4844  138.9191  165.1127 C.2     1  UNL1        0.3943
      7 N         138.4641  138.1138  166.3781 N.2     1  UNL1        0.1539
      8 O         137.7925  138.6592  167.6035 O.2     1  UNL1       -0.3110
      9 H         137.7798  138.1562  168.3939 H       1  UNL1        0.3605
     10 N         137.8332  140.2697  165.0727 N.pl3   1  UNL1       -0.1942
     11 H         136.8558  140.3478  165.1608 H       1  UNL1        0.2987
     12 C         138.6713  141.5016  164.8986 C.ar    1  UNL1        0.1364
     13 C         139.8712  141.7219  165.7712 C.ar    1  UNL1        0.0425
     14 C         140.7092  142.9537  165.5971 C.ar    1  UNL1        0.0336
     15 C         140.3472  143.9652  164.5503 C.ar    1  UNL1        0.1465
     16 F         141.1853  145.1971  164.3761 F       1  UNL1       -0.2036
     17 C         139.1473  143.7449  163.6776 C.ar    1  UNL1        0.0654
     18 BR        138.7853  144.7565  162.6308 Br      1  UNL1       -0.0465
     19 C         138.3093  142.5131  163.8518 C.ar    1  UNL1        0.0491
     20 N         141.4965  137.6715  164.9707 N.pl3   1  UNL1       -0.3123
     21 H         141.5690  136.8189  165.4576 H       1  UNL1        0.1484
     22 C         142.3421  138.8416  165.3776 C.3     1  UNL1        0.1150
     23 C         142.9252  138.9017  166.7583 C.3     1  UNL1        0.1504
     24 C         141.4654  141.2345  169.4955 C.ar    1  UNL1        0.1274
     25 C         141.5616  139.8922  168.8331 C.ar    1  UNL1        0.1156
     26 N         142.5290  140.0064  167.6924 N.ar    1  UNL1       -0.2287
     27 N         143.0305  141.4195  167.6499 N.ar    1  UNL1       -0.0640
     28 N         142.3732  142.1784  168.7642 N.ar    1  UNL1       -0.1307
     29 C         139.7493  142.8009  170.6582 C.3     1  UNL1        0.0384
     30 C         140.6113  141.5735  170.6810 C.3     1  UNL1        0.1536
     31 O         140.6190  140.6850  171.8895 O.3     1  UNL1       -0.3784
     32 H         140.0166  141.0449  172.5593 H       1  UNL1        0.2109
@<TRIPOS>BOND
     1    29    30    1
     2    30    31    1
     3    30    24    1
     4    24    25   ar
     5    25    26   ar
     6    26    23    1
     7    23    22    1
     8    22    20    1
     9    20     1    1
    10     1     2   ar
    11     2     3   ar
    12     3     4   ar
    13     4     5   ar
    14     5     6    1
    15     6     7    2
    16     7     8    1
    17     6    10    1
    18    10    12    1
    19    12    13   ar
    20    13    14   ar
    21    14    15   ar
    22    15    16    1
    23    15    17   ar
    24    17    18    1
    25    17    19   ar
    26    26    27   ar
    27    27    28   ar
    28    28    24   ar
    29     5     1   ar
    30    19    12   ar
    31    31    32    1
    32    20    21    1
    33     8     9    1
    34    10    11    1
@<TRIPOS>MOLECULE
*****
 32 34 0 0 0
SMALL
GASTEIGER

@<TRIPOS>ATOM
      1 C         138.1129  142.5630  161.6371 C.ar    1  UNL1        0.1987
      2 N         137.3344  141.3418  162.0278 N.ar    1  UNL1       -0.0331
      3 O         136.9970  141.4537  163.4851 O.2     1  UNL1       -0.2400
      4 N         137.5670  142.7440  163.9950 N.ar    1  UNL1       -0.0391
      5 C         138.2567  143.4297  162.8530 C.ar    1  UNL1        0.2426
      6 C         138.9656  144.7501  162.9157 C.2     1  UNL1        0.3943
      7 N         138.8862  145.6998  161.7573 N.2     1  UNL1        0.1539
      8 O         139.5951  147.0202  161.8201 O.2     1  UNL1       -0.3110
      9 H         139.5455  147.6134  161.0965 H       1  UNL1        0.3605
     10 N         139.7539  145.1208  164.1368 N.pl3   1  UNL1       -0.1942
     11 H         139.3619  145.7196  164.8128 H       1  UNL1        0.2987
     12 C         141.1396  144.5791  164.3280 C.ar    1  UNL1        0.1364
     13 C         142.3188  145.3234  163.7753 C.ar    1  UNL1        0.0425
     14 C         143.7043  144.7817  163.9665 C.ar    1  UNL1        0.0336
     15 C         143.9108  143.4956  164.7104 C.ar    1  UNL1        0.1465
     16 F         145.2965  142.9539  164.9016 F       1  UNL1       -0.2036
     17 C         142.7317  142.7513  165.2632 C.ar    1  UNL1        0.0654
     18 BR        142.9381  141.4653  166.0072 Br      1  UNL1       -0.0465
     19 C         141.3461  143.2930  165.0720 C.ar    1  UNL1        0.0491
     20 N         138.6528  142.8647  160.2706 N.pl3   1  UNL1       -0.3123
     21 H         138.0841  143.3153  159.6051 H       1  UNL1        0.1484
     22 C         140.0589  142.4798  159.9179 C.3     1  UNL1        0.1150
     23 C         141.1384  143.5210  159.8952 C.3     1  UNL1        0.1504
     24 C         140.4147  146.1854  157.1669 C.ar    1  UNL1        0.1274
     25 C         139.9413  145.1953  158.1894 C.ar    1  UNL1        0.1156
     26 N         141.1487  144.5673  158.8204 N.ar    1  UNL1       -0.2287
     27 N         142.3682  145.1695  158.1877 N.ar    1  UNL1       -0.0640
     28 N         141.9146  146.1694  157.1659 N.ar    1  UNL1       -0.1307
     29 C         139.4096  146.7362  154.8353 C.3     1  UNL1        0.0384
     30 C         139.5415  147.0412  156.2981 C.3     1  UNL1        0.1536
     31 O         138.8000  148.2021  156.8919 O.3     1  UNL1       -0.3784
     32 H         138.2864  148.6462  156.1991 H       1  UNL1        0.2109
@<TRIPOS>BOND
     1    29    30    1
     2    30    31    1
     3    30    24    1
     4    24    25   ar
     5    25    26   ar
     6    26    23    1
     7    23    22    1
     8    22    20    1
     9    20     1    1
    10     1     2   ar
    11     2     3   ar
    12     3     4   ar
    13     4     5   ar
    14     5     6    1
    15     6     7    2
    16     7     8    1
    17     6    10    1
    18    10    12    1
    19    12    13   ar
    20    13    14   ar
    21    14    15   ar
    22    15    16    1
    23    15    17   ar
    24    17    18    1
    25    17    19   ar
    26    26    27   ar
    27    27    28   ar
    28    28    24   ar
    29     5     1   ar
    30    19    12   ar
    31    31    32    1
    32    20    21    1
    33     8     9    1
    34    10    11    1
@<TRIPOS>MOLECULE
*****
 32 34 0 0 0
SMALL
GASTEIGER

@<TRIPOS>ATOM
      1 C         139.0761  138.4554  163.0928 C.ar    1  UNL1        0.1987
      2 N         140.1214  137.8580  162.1982 N.ar    1  UNL1       -0.0331
      3 O         140.9604  136.9274  163.0229 O.2     1  UNL1       -0.2400
      4 N         140.4336  136.9497  164.4271 N.ar    1  UNL1       -0.0391
      5 C         139.2690  137.8940  164.4704 C.ar    1  UNL1        0.2426
      6 C         138.4424  138.2198  165.6790 C.2     1  UNL1        0.3943
      7 N         137.6809  137.1350  166.3814 N.2     1  UNL1        0.1539
      8 O         136.8543  137.4608  167.5900 O.2     1  UNL1       -0.3110
      9 H         136.3786  136.7832  168.0288 H       1  UNL1        0.3605
     10 N         138.3773  139.6303  166.1851 N.pl3   1  UNL1       -0.1942
     11 H         137.6191  140.2076  165.9376 H       1  UNL1        0.2987
     12 C         139.4673  140.1614  167.0682 C.ar    1  UNL1        0.1364
     13 C         139.3978  139.9545  168.5522 C.ar    1  UNL1        0.0425
     14 C         140.4878  140.4855  169.4353 C.ar    1  UNL1        0.0336
     15 C         141.6473  141.2234  168.8344 C.ar    1  UNL1        0.1465
     16 F         142.7373  141.7544  169.7176 F       1  UNL1       -0.2036
     17 C         141.7168  141.4303  167.3504 C.ar    1  UNL1        0.0654
     18 BR        142.8762  142.1682  166.7495 Br      1  UNL1       -0.0465
     19 C         140.6268  140.8993  166.4673 C.ar    1  UNL1        0.0491
     20 N         138.0227  139.4411  162.6820 N.pl3   1  UNL1       -0.3123
     21 H         137.4992  139.9162  163.3671 H       1  UNL1        0.1484
     22 C         137.7670  139.7030  161.2274 C.3     1  UNL1        0.1150
     23 C         138.2888  140.9553  160.5876 C.3     1  UNL1        0.1504
     24 C         139.4173  144.2182  162.3614 C.ar    1  UNL1        0.1274
     25 C         139.6645  143.1023  161.3900 C.ar    1  UNL1        0.1156
     26 N         138.4675  142.1983  161.4081 N.ar    1  UNL1       -0.2287
     27 N         137.4806  142.7557  162.3906 N.ar    1  UNL1       -0.0640
     28 N         138.0676  144.0040  162.9798 N.ar    1  UNL1       -0.1307
     29 C         141.5619  145.1156  163.5212 C.3     1  UNL1        0.0384
     30 C         140.3551  145.3496  162.6616 C.3     1  UNL1        0.1536
     31 O         140.0862  146.7152  162.1023 O.3     1  UNL1       -0.3784
     32 H         140.7832  147.3254  162.3900 H       1  UNL1        0.2109
@<TRIPOS>BOND
     1    29    30    1
     2    30    31    1
     3    30    24    1
     4    24    25   ar
     5    25    26   ar
     6    26    23    1
     7    23    22    1
     8    22    20    1
     9    20     1    1
    10     1     2   ar
    11     2     3   ar
    12     3     4   ar
    13     4     5   ar
    14     5     6    1
    15     6     7    2
    16     7     8    1
    17     6    10    1
    18    10    12    1
    19    12    13   ar
    20    13    14   ar
    21    14    15   ar
    22    15    16    1
    23    15    17   ar
    24    17    18    1
    25    17    19   ar
    26    26    27   ar
    27    27    28   ar
    28    28    24   ar
    29     5     1   ar
    30    19    12   ar
    31    31    32    1
    32    20    21    1
    33     8     9    1
    34    10    11    1
@<TRIPOS>MOLECULE
*****
 32 34 0 0 0
SMALL
GASTEIGER

@<TRIPOS>ATOM
      1 C         139.3831  139.7410  167.0983 C.ar    1  UNL1        0.1987
      2 N         138.8777  139.5017  168.4901 N.ar    1  UNL1       -0.0331
      3 O         137.5840  138.7491  168.3905 O.2     1  UNL1       -0.2400
      4 N         137.2899  138.5233  166.9371 N.ar    1  UNL1       -0.0391
      5 C         138.4018  139.1364  166.1384 C.ar    1  UNL1        0.2426
      6 C         138.5128  139.1435  164.6425 C.2     1  UNL1        0.3943
      7 N         139.5908  138.3489  163.9667 N.2     1  UNL1        0.1539
      8 O         139.7018  138.3560  162.4708 O.2     1  UNL1       -0.3110
      9 H         140.3751  137.8597  162.0486 H       1  UNL1        0.3605
     10 N         137.5459  139.9451  163.8225 N.pl3   1  UNL1       -0.1942
     11 H         136.7037  139.5374  163.5164 H       1  UNL1        0.2987
     12 C         137.8622  141.3682  163.4688 C.ar    1  UNL1        0.1364
     13 C         137.9708  141.7769  162.0297 C.ar    1  UNL1        0.0425
     14 C         138.2871  143.1998  161.6760 C.ar    1  UNL1        0.0336
     15 C         138.4948  144.2141  162.7614 C.ar    1  UNL1        0.1465
     16 F         138.8111  145.6371  162.4077 F       1  UNL1       -0.2036
     17 C         138.3862  143.8053  164.2005 C.ar    1  UNL1        0.0654
     18 BR        138.5939  144.8196  165.2860 Br      1  UNL1       -0.0465
     19 C         138.0699  142.3824  164.5542 C.ar    1  UNL1        0.0491
     20 N         140.6478  140.4590  166.7308 N.pl3   1  UNL1       -0.3123
     21 H         141.3980  139.9617  166.3319 H       1  UNL1        0.1484
     22 C         140.7695  141.9346  166.9709 C.3     1  UNL1        0.1150
     23 C         141.7316  142.7499  166.1587 C.3     1  UNL1        0.1504
     24 C         141.9939  143.1298  162.3048 C.ar    1  UNL1        0.1274
     25 C         142.1035  143.6998  163.6879 C.ar    1  UNL1        0.1156
     26 N         141.7524  142.6169  164.6647 N.ar    1  UNL1       -0.2287
     27 N         141.4258  141.3777  163.8852 N.ar    1  UNL1       -0.0640
     28 N         141.5751  141.6947  162.4267 N.ar    1  UNL1       -0.1307
     29 C         142.9785  143.1822  159.9010 C.3     1  UNL1        0.0384
     30 C         142.2570  143.8657  161.0245 C.3     1  UNL1        0.1536
     31 O         141.7986  145.2853  160.8677 O.3     1  UNL1       -0.3784
     32 H         142.0464  145.6097  159.9877 H       1  UNL1        0.2109
@<TRIPOS>BOND
     1    29    30    1
     2    30    31    1
     3    30    24    1
     4    24    25   ar
     5    25    26   ar
     6    26    23    1
     7    23    22    1
     8    22    20    1
     9    20     1    1
    10     1     2   ar
    11     2     3   ar
    12     3     4   ar
    13     4     5   ar
    14     5     6    1
    15     6     7    2
    16     7     8    1
    17     6    10    1
    18    10    12    1
    19    12    13   ar
    20    13    14   ar
    21    14    15   ar
    22    15    16    1
    23    15    17   ar
    24    17    18    1
    25    17    19   ar
    26    26    27   ar
    27    27    28   ar
    28    28    24   ar
    29     5     1   ar
    30    19    12   ar
    31    31    32    1
    32    20    21    1
    33     8     9    1
    34    10    11    1
