@<TRIPOS>MOLECULE
*****
 19 21 0 0 0
SMALL
GASTEIGER

@<TRIPOS>ATOM
      1 N         139.8519  139.9584  166.5146 N.pl3   1  UNL1       -0.2924
      2 C         138.6780  139.7868  165.5966 C.3     1  UNL1        0.1094
      3 C         139.0598  138.7974  164.5358 C.3     1  UNL1        0.0951
      4 N         140.4696  138.3576  164.7980 N.3     1  UNL1       -0.2528
      5 C         140.9591  139.0750  166.0210 C.3     1  UNL1        0.1690
      6 C         140.0217  142.6503  170.1166 C.ar    1  UNL1        0.0001
      7 C         140.5269  143.1382  168.7912 C.ar    1  UNL1        0.0013
      8 C         140.4702  142.2409  167.5905 C.ar    1  UNL1        0.0145
      9 C         139.9085  140.8557  167.7152 C.ar    1  UNL1        0.0488
     10 C         139.4033  140.3678  169.0407 C.ar    1  UNL1        0.0145
     11 C         139.4600  141.2651  170.2413 C.ar    1  UNL1        0.0013
     12 C         141.2525  137.3731  163.9808 C.3     1  UNL1        0.0893
     13 C         142.1772  137.8592  162.9044 C.3     1  UNL1        0.0702
     14 C         143.1809  138.9323  163.2061 C.3     1  UNL1        0.0172
     15 C         144.1056  139.4183  162.1297 C.3     1  UNL1        0.0028
     16 C         144.0266  138.8313  160.7516 C.3     1  UNL1        0.0171
     17 C         143.0228  137.7582  160.4499 C.3     1  UNL1        0.0686
     18 N         142.0982  137.2721  161.5264 N.3     1  UNL1       -0.2974
     19 H         142.2605  136.2698  161.6235 H       1  UNL1        0.1232
@<TRIPOS>BOND
     1     6     7   ar
     2     7     8   ar
     3     8     9   ar
     4     9     1    1
     5     1     2    1
     6     2     3    1
     7     3     4    1
     8     4    12    1
     9    12    13    1
    10    13    14    1
    11    14    15    1
    12    15    16    1
    13    16    17    1
    14    17    18    1
    15     4     5    1
    16     9    10   ar
    17    10    11   ar
    18    11     6   ar
    19     5     1    1
    20    18    13    1
    21    18    19    1
@<TRIPOS>MOLECULE
*****
 19 21 0 0 0
SMALL
GASTEIGER

@<TRIPOS>ATOM
      1 N         139.7610  139.5334  166.6301 N.pl3   1  UNL1       -0.2924
      2 C         138.4952  138.8330  166.2334 C.3     1  UNL1        0.1094
      3 C         138.8324  137.8368  165.1639 C.3     1  UNL1        0.0951
      4 N         140.3065  137.9214  164.8996 N.3     1  UNL1       -0.2528
      5 C         140.8803  138.9700  165.8057 C.3     1  UNL1        0.1690
      6 C         140.1344  142.7586  169.7460 C.ar    1  UNL1        0.0001
      7 C         139.5546  141.4247  170.1129 C.ar    1  UNL1        0.0013
      8 C         139.4301  140.3497  169.0743 C.ar    1  UNL1        0.0145
      9 C         139.8854  140.6085  167.6687 C.ar    1  UNL1        0.0488
     10 C         140.4652  141.9423  167.3018 C.ar    1  UNL1        0.0145
     11 C         140.5897  143.0174  168.3404 C.ar    1  UNL1        0.0013
     12 C         141.0722  137.1015  163.9039 C.3     1  UNL1        0.0893
     13 C         141.2099  137.5772  162.4880 C.3     1  UNL1        0.0702
     14 C         140.0108  138.0960  161.7512 C.3     1  UNL1        0.0172
     15 C         140.1484  138.5717  160.3354 C.3     1  UNL1        0.0028
     16 C         141.4852  138.5287  159.6563 C.3     1  UNL1        0.0171
     17 C         142.6843  138.0100  160.3932 C.3     1  UNL1        0.0686
     18 N         142.5467  137.5342  161.8091 N.3     1  UNL1       -0.2974
     19 H         143.1815  138.0996  162.3727 H       1  UNL1        0.1232
@<TRIPOS>BOND
     1     6     7   ar
     2     7     8   ar
     3     8     9   ar
     4     9     1    1
     5     1     2    1
     6     2     3    1
     7     3     4    1
     8     4    12    1
     9    12    13    1
    10    13    14    1
    11    14    15    1
    12    15    16    1
    13    16    17    1
    14    17    18    1
    15     4     5    1
    16     9    10   ar
    17    10    11   ar
    18    11     6   ar
    19     5     1    1
    20    18    13    1
    21    18    19    1
@<TRIPOS>MOLECULE
*****
 19 21 0 0 0
SMALL
GASTEIGER

@<TRIPOS>ATOM
      1 N         139.4288  140.6162  165.7703 N.pl3   1  UNL1       -0.2924
      2 C         138.6970  139.6450  164.8921 C.3     1  UNL1        0.1094
      3 C         137.9621  140.4291  163.8456 C.3     1  UNL1        0.0951
      4 N         138.2398  141.8849  164.0770 N.3     1  UNL1       -0.2528
      5 C         139.1462  142.0005  165.2666 C.3     1  UNL1        0.1690
      6 C         142.0175  139.5619  169.2970 C.ar    1  UNL1        0.0001
      7 C         142.5835  139.5098  167.9089 C.ar    1  UNL1        0.0013
      8 C         141.7206  139.8613  166.7334 C.ar    1  UNL1        0.0145
      9 C         140.2917  140.2648  166.9459 C.ar    1  UNL1        0.0488
     10 C         139.7256  140.3169  168.3340 C.ar    1  UNL1        0.0145
     11 C         140.5885  139.9655  169.5095 C.ar    1  UNL1        0.0013
     12 C         137.7049  143.0249  163.2620 C.3     1  UNL1        0.0893
     13 C         138.6301  143.8256  162.3943 C.3     1  UNL1        0.0702
     14 C         139.2366  145.0947  162.9156 C.3     1  UNL1        0.0172
     15 C         140.1618  145.8953  162.0480 C.3     1  UNL1        0.0028
     16 C         140.4806  145.4270  160.6591 C.3     1  UNL1        0.0171
     17 C         139.8741  144.1579  160.1378 C.3     1  UNL1        0.0686
     18 N         138.9488  143.3572  161.0055 N.3     1  UNL1       -0.2974
     19 H         139.3597  142.4280  161.0952 H       1  UNL1        0.1232
@<TRIPOS>BOND
     1     6     7   ar
     2     7     8   ar
     3     8     9   ar
     4     9     1    1
     5     1     2    1
     6     2     3    1
     7     3     4    1
     8     4    12    1
     9    12    13    1
    10    13    14    1
    11    14    15    1
    12    15    16    1
    13    16    17    1
    14    17    18    1
    15     4     5    1
    16     9    10   ar
    17    10    11   ar
    18    11     6   ar
    19     5     1    1
    20    18    13    1
    21    18    19    1
@<TRIPOS>MOLECULE
*****
 19 21 0 0 0
SMALL
GASTEIGER

@<TRIPOS>ATOM
      1 N         138.4657  141.2086  163.7034 N.pl3   1  UNL1       -0.2924
      2 C         137.2657  141.8702  163.0931 C.3     1  UNL1        0.1094
      3 C         137.7098  143.1690  162.4883 C.3     1  UNL1        0.0951
      4 N         139.1843  143.3102  162.7247 N.3     1  UNL1       -0.2528
      5 C         139.6514  142.0986  163.4757 C.3     1  UNL1        0.1690
      6 C         138.5019  137.2493  165.8417 C.ar    1  UNL1        0.0001
      7 C         138.0387  138.4837  166.5569 C.ar    1  UNL1        0.0013
      8 C         138.0266  139.8035  165.8441 C.ar    1  UNL1        0.0145
      9 C         138.4777  139.8888  164.4161 C.ar    1  UNL1        0.0488
     10 C         138.9409  138.6544  163.7009 C.ar    1  UNL1        0.0145
     11 C         138.9530  137.3346  164.4137 C.ar    1  UNL1        0.0013
     12 C         140.0413  144.4609  162.2871 C.3     1  UNL1        0.0893
     13 C         141.5327  144.3806  162.4257 C.3     1  UNL1        0.0702
     14 C         142.2273  145.1461  163.5126 C.3     1  UNL1        0.0172
     15 C         143.7186  145.0658  163.6512 C.3     1  UNL1        0.0028
     16 C         144.5155  144.2200  162.7028 C.3     1  UNL1        0.0171
     17 C         143.8209  143.4545  161.6158 C.3     1  UNL1        0.0686
     18 N         142.3295  143.5348  161.4772 N.3     1  UNL1       -0.2974
     19 H         141.9742  142.5824  161.5623 H       1  UNL1        0.1232
@<TRIPOS>BOND
     1     6     7   ar
     2     7     8   ar
     3     8     9   ar
     4     9     1    1
     5     1     2    1
     6     2     3    1
     7     3     4    1
     8     4    12    1
     9    12    13    1
    10    13    14    1
    11    14    15    1
    12    15    16    1
    13    16    17    1
    14    17    18    1
    15     4     5    1
    16     9    10   ar
    17    10    11   ar
    18    11     6   ar
    19     5     1    1
    20    18    13    1
    21    18    19    1
@<TRIPOS>MOLECULE
*****
 19 21 0 0 0
SMALL
GASTEIGER

@<TRIPOS>ATOM
      1 N         141.3195  141.1052  165.4430 N.pl3   1  UNL1       -0.2924
      2 C         142.6275  141.2279  166.1670 C.3     1  UNL1        0.1094
      3 C         143.2817  142.5047  165.7289 C.3     1  UNL1        0.0951
      4 N         142.3781  143.1711  164.7343 N.3     1  UNL1       -0.2528
      5 C         141.1654  142.3061  164.5576 C.3     1  UNL1        0.1690
      6 C         138.3751  137.7272  165.8552 C.ar    1  UNL1        0.0001
      7 C         138.2309  138.9556  166.7038 C.ar    1  UNL1        0.0013
      8 C         139.2123  140.0816  166.5664 C.ar    1  UNL1        0.0145
      9 C         140.3381  139.9792  165.5804 C.ar    1  UNL1        0.0488
     10 C         140.4823  138.7508  164.7318 C.ar    1  UNL1        0.0145
     11 C         139.5008  137.6248  164.8692 C.ar    1  UNL1        0.0013
     12 C         142.6409  144.4736  164.0384 C.3     1  UNL1        0.0893
     13 C         141.8327  144.8572  162.8344 C.3     1  UNL1        0.0702
     14 C         142.1292  144.2340  161.5026 C.3     1  UNL1        0.0172
     15 C         141.3211  144.6175  160.2985 C.3     1  UNL1        0.0028
     16 C         140.2165  145.6243  160.4263 C.3     1  UNL1        0.0171
     17 C         139.9201  146.2475  161.7581 C.3     1  UNL1        0.0686
     18 N         140.7283  145.8640  162.9621 N.3     1  UNL1       -0.2974
     19 H         140.0728  145.4961  163.6517 H       1  UNL1        0.1232
@<TRIPOS>BOND
     1     6     7   ar
     2     7     8   ar
     3     8     9   ar
     4     9     1    1
     5     1     2    1
     6     2     3    1
     7     3     4    1
     8     4    12    1
     9    12    13    1
    10    13    14    1
    11    14    15    1
    12    15    16    1
    13    16    17    1
    14    17    18    1
    15     4     5    1
    16     9    10   ar
    17    10    11   ar
    18    11     6   ar
    19     5     1    1
    20    18    13    1
    21    18    19    1
@<TRIPOS>MOLECULE
*****
 19 21 0 0 0
SMALL
GASTEIGER

@<TRIPOS>ATOM
      1 N         140.0662  142.2704  166.5077 N.pl3   1  UNL1       -0.2924
      2 C         139.5167  140.9503  166.0544 C.3     1  UNL1        0.1094
      3 C         138.6649  141.1938  164.8439 C.3     1  UNL1        0.0951
      4 N         138.6880  142.6643  164.5491 N.3     1  UNL1       -0.2528
      5 C         139.5540  143.3297  165.5774 C.3     1  UNL1        0.1690
      6 C         142.7753  142.9357  170.0387 C.ar    1  UNL1        0.0001
      7 C         143.3009  142.2602  168.8069 C.ar    1  UNL1        0.0013
      8 C         142.3979  142.0384  167.6299 C.ar    1  UNL1        0.0145
      9 C         140.9692  142.4922  167.6847 C.ar    1  UNL1        0.0488
     10 C         140.4436  143.1677  168.9165 C.ar    1  UNL1        0.0145
     11 C         141.3467  143.3895  170.0935 C.ar    1  UNL1        0.0013
     12 C         137.9710  143.3493  163.4236 C.3     1  UNL1        0.0893
     13 C         138.7535  144.0130  162.3295 C.3     1  UNL1        0.0702
     14 C         139.2452  143.2070  161.1640 C.3     1  UNL1        0.0172
     15 C         140.0277  143.8706  160.0699 C.3     1  UNL1        0.0028
     16 C         140.3184  145.3405  160.1412 C.3     1  UNL1        0.0171
     17 C         139.8267  146.1465  161.3067 C.3     1  UNL1        0.0686
     18 N         139.0442  145.4828  162.4009 N.3     1  UNL1       -0.2974
     19 H         138.1435  145.9591  162.4494 H       1  UNL1        0.1232
@<TRIPOS>BOND
     1     6     7   ar
     2     7     8   ar
     3     8     9   ar
     4     9     1    1
     5     1     2    1
     6     2     3    1
     7     3     4    1
     8     4    12    1
     9    12    13    1
    10    13    14    1
    11    14    15    1
    12    15    16    1
    13    16    17    1
    14    17    18    1
    15     4     5    1
    16     9    10   ar
    17    10    11   ar
    18    11     6   ar
    19     5     1    1
    20    18    13    1
    21    18    19    1
@<TRIPOS>MOLECULE
*****
 19 21 0 0 0
SMALL
GASTEIGER

@<TRIPOS>ATOM
      1 N         140.1189  140.0355  167.4329 N.pl3   1  UNL1       -0.2924
      2 C         138.7015  139.6376  167.7205 C.3     1  UNL1        0.1094
      3 C         138.2502  138.7101  166.6314 C.3     1  UNL1        0.0951
      4 N         139.3887  138.5347  165.6706 N.3     1  UNL1       -0.2528
      5 C         140.5436  139.3539  166.1660 C.3     1  UNL1        0.1690
      6 C         142.6520  142.7902  169.9318 C.ar    1  UNL1        0.0001
      7 C         141.2439  143.1739  169.5856 C.ar    1  UNL1        0.0013
      8 C         140.3995  142.2557  168.7526 C.ar    1  UNL1        0.0145
      9 C         140.9632  140.9537  168.2659 C.ar    1  UNL1        0.0488
     10 C         142.3714  140.5700  168.6121 C.ar    1  UNL1        0.0145
     11 C         143.2157  141.4882  169.4450 C.ar    1  UNL1        0.0013
     12 C         139.3748  137.6888  164.4320 C.3     1  UNL1        0.0893
     13 C         139.0333  138.3041  163.1073 C.3     1  UNL1        0.0702
     14 C         138.2088  139.5560  163.0521 C.3     1  UNL1        0.0172
     15 C         137.8673  140.1712  161.7275 C.3     1  UNL1        0.0028
     16 C         138.3502  139.5347  160.4580 C.3     1  UNL1        0.0171
     17 C         139.1747  138.2828  160.5132 C.3     1  UNL1        0.0686
     18 N         139.5163  137.6676  161.8379 N.3     1  UNL1       -0.2974
     19 H         140.5342  137.6348  161.8937 H       1  UNL1        0.1232
@<TRIPOS>BOND
     1     6     7   ar
     2     7     8   ar
     3     8     9   ar
     4     9     1    1
     5     1     2    1
     6     2     3    1
     7     3     4    1
     8     4    12    1
     9    12    13    1
    10    13    14    1
    11    14    15    1
    12    15    16    1
    13    16    17    1
    14    17    18    1
    15     4     5    1
    16     9    10   ar
    17    10    11   ar
    18    11     6   ar
    19     5     1    1
    20    18    13    1
    21    18    19    1
@<TRIPOS>MOLECULE
*****
 19 21 0 0 0
SMALL
GASTEIGER

@<TRIPOS>ATOM
      1 N         141.3916  140.2142  167.0724 N.pl3   1  UNL1       -0.2924
      2 C         142.4426  139.4051  166.3719 C.3     1  UNL1        0.1094
      3 C         141.7541  138.4910  165.4021 C.3     1  UNL1        0.0951
      4 N         140.2776  138.7352  165.5033 N.3     1  UNL1       -0.2528
      5 C         140.0536  139.8002  166.5356 C.3     1  UNL1        0.1690
      6 C         142.1243  143.3355  170.2300 C.ar    1  UNL1        0.0001
      7 C         143.2071  142.3607  169.8736 C.ar    1  UNL1        0.0013
      8 C         142.9629  141.3202  168.8211 C.ar    1  UNL1        0.0145
      9 C         141.6358  141.2546  168.1250 C.ar    1  UNL1        0.0488
     10 C         140.5530  142.2295  168.4814 C.ar    1  UNL1        0.0145
     11 C         140.7972  143.2699  169.5340 C.ar    1  UNL1        0.0013
     12 C         139.2121  138.0370  164.7113 C.3     1  UNL1        0.0893
     13 C         138.8759  138.5084  163.3275 C.3     1  UNL1        0.0702
     14 C         138.1183  139.7886  163.1347 C.3     1  UNL1        0.0172
     15 C         137.7821  140.2599  161.7510 C.3     1  UNL1        0.0028
     16 C         138.2035  139.4512  160.5601 C.3     1  UNL1        0.0171
     17 C         138.9611  138.1710  160.7529 C.3     1  UNL1        0.0686
     18 N         139.2973  137.6996  162.1367 N.3     1  UNL1       -0.2974
     19 H         140.3130  137.6174  162.1811 H       1  UNL1        0.1232
@<TRIPOS>BOND
     1     6     7   ar
     2     7     8   ar
     3     8     9   ar
     4     9     1    1
     5     1     2    1
     6     2     3    1
     7     3     4    1
     8     4    12    1
     9    12    13    1
    10    13    14    1
    11    14    15    1
    12    15    16    1
    13    16    17    1
    14    17    18    1
    15     4     5    1
    16     9    10   ar
    17    10    11   ar
    18    11     6   ar
    19     5     1    1
    20    18    13    1
    21    18    19    1
@<TRIPOS>MOLECULE
*****
 19 21 0 0 0
SMALL
GASTEIGER

@<TRIPOS>ATOM
      1 N         141.0578  142.7753  166.1397 N.pl3   1  UNL1       -0.2924
      2 C         142.4512  142.6292  165.6039 C.3     1  UNL1        0.1094
      3 C         142.5876  143.5328  164.4144 C.3     1  UNL1        0.0951
      4 N         141.2785  144.2374  164.2150 N.3     1  UNL1       -0.2528
      5 C         140.3330  143.7693  165.2813 C.3     1  UNL1        0.1690
      6 C         139.3514  140.6119  169.6975 C.ar    1  UNL1        0.0001
      7 C         139.9592  141.9726  169.8678 C.ar    1  UNL1        0.0013
      8 C         140.5280  142.6937  168.6819 C.ar    1  UNL1        0.0145
      9 C         140.4890  142.0542  167.3256 C.ar    1  UNL1        0.0488
     10 C         139.8812  140.6935  167.1553 C.ar    1  UNL1        0.0145
     11 C         139.3124  139.9723  168.3413 C.ar    1  UNL1        0.0013
     12 C         140.9691  145.2350  163.1384 C.3     1  UNL1        0.0893
     13 C         140.7788  144.7762  161.7230 C.3     1  UNL1        0.0702
     14 C         139.8029  143.6796  161.4149 C.3     1  UNL1        0.0172
     15 C         139.6126  143.2208  159.9996 C.3     1  UNL1        0.0028
     16 C         140.3982  143.8586  158.8923 C.3     1  UNL1        0.0171
     17 C         141.3741  144.9552  159.2005 C.3     1  UNL1        0.0686
     18 N         141.5644  145.4140  160.6159 N.3     1  UNL1       -0.2974
     19 H         141.3446  146.4099  160.6347 H       1  UNL1        0.1232
@<TRIPOS>BOND
     1     6     7   ar
     2     7     8   ar
     3     8     9   ar
     4     9     1    1
     5     1     2    1
     6     2     3    1
     7     3     4    1
     8     4    12    1
     9    12    13    1
    10    13    14    1
    11    14    15    1
    12    15    16    1
    13    16    17    1
    14    17    18    1
    15     4     5    1
    16     9    10   ar
    17    10    11   ar
    18    11     6   ar
    19     5     1    1
    20    18    13    1
    21    18    19    1
