@<TRIPOS>MOLECULE
*****
 30 33 0 0 0
SMALL
GASTEIGER

@<TRIPOS>ATOM
      1 C         140.8112  139.0613  162.9209 C.ar    1  UNL1        0.0001
      2 C         141.9535  138.1452  162.5959 C.ar    1  UNL1        0.0013
      3 C         142.3173  137.8783  161.1653 C.ar    1  UNL1        0.0183
      4 C         141.5387  138.5276  160.0598 C.ar    1  UNL1        0.1057
      5 C         140.3963  139.4438  160.3848 C.ar    1  UNL1        0.0183
      6 C         140.0326  139.7106  161.8154 C.ar    1  UNL1        0.0013
      7 C         139.7199  139.8621  167.2125 C.ar    1  UNL1       -0.0208
      8 C         141.0248  140.3596  166.6651 C.ar    1  UNL1       -0.0042
      9 C         141.3885  140.0927  165.2346 C.ar    1  UNL1       -0.0003
     10 C         140.4474  139.3283  164.3515 C.ar    1  UNL1       -0.0000
     11 C         139.1425  138.8307  164.8989 C.ar    1  UNL1       -0.0003
     12 C         138.7788  139.0976  166.3294 C.ar    1  UNL1       -0.0042
     13 C         139.3561  140.1290  168.6431 C.3     1  UNL1        0.0437
     14 C         140.3926  139.9919  169.7187 C.3     1  UNL1        0.0768
     15 C         139.9405  143.1411  170.4450 C.3     1  UNL1        0.0173
     16 C         141.2608  142.4750  170.1937 C.3     1  UNL1        0.0576
     17 C         142.6050  143.1394  170.2321 C.3     1  UNL1        0.0174
     18 C         143.6437  142.1025  169.9220 C.3     1  UNL1        0.0187
     19 C         142.9413  140.7972  169.6919 C.3     1  UNL1        0.0721
     20 N         141.4686  141.0275  169.8598 N.3     1  UNL1       -0.2737
     21 S         141.9025  138.2607  158.6293 S.O2    1  UNL1        0.0087
     22 O         143.3562  138.3944  158.9740 O.2     1  UNL1       -0.1686
     23 O         140.4488  138.1270  158.2846 O.2     1  UNL1       -0.1686
     24 C         142.2662  137.9938  157.1988 C.3     1  UNL1        0.1560
     25 C         142.1704  136.6020  156.6476 C.3     1  UNL1        0.0290
     26 C         143.0266  135.5095  157.2164 C.3     1  UNL1        0.0339
     27 C         142.9308  134.1178  156.6652 C.3     1  UNL1        0.1422
     28 O         141.9787  133.8185  155.5453 O.3     1  UNL1       -0.3538
     29 C         141.1226  134.9110  154.9766 C.3     1  UNL1        0.1422
     30 C         141.2184  136.3027  155.5278 C.3     1  UNL1        0.0339
@<TRIPOS>BOND
     1    16    15    1
     2    16    17    1
     3    17    18    1
     4    18    19    1
     5    19    20    1
     6    20    14    1
     7    14    13    1
     8    13     7    1
     9     7     8   ar
    10     8     9   ar
    11     9    10   ar
    12    10     1    1
    13     1     2   ar
    14     2     3   ar
    15     3     4   ar
    16     4    21    1
    17    21    22    2
    18    21    23    2
    19    21    24    1
    20    24    25    1
    21    25    26    1
    22    26    27    1
    23    27    28    1
    24    28    29    1
    25    29    30    1
    26     4     5   ar
    27     5     6   ar
    28    10    11   ar
    29    11    12   ar
    30    20    16    1
    31    12     7   ar
    32     6     1   ar
    33    30    25    1
@<TRIPOS>MOLECULE
*****
 30 33 0 0 0
SMALL
GASTEIGER

@<TRIPOS>ATOM
      1 C         140.4992  142.9178  163.2508 C.ar    1  UNL1        0.0001
      2 C         139.3828  143.0009  162.2524 C.ar    1  UNL1        0.0013
      3 C         139.5950  143.7093  160.9473 C.ar    1  UNL1        0.0183
      4 C         140.9236  144.3346  160.6407 C.ar    1  UNL1        0.1057
      5 C         142.0399  144.2514  161.6392 C.ar    1  UNL1        0.0183
      6 C         141.8277  143.5431  162.9442 C.ar    1  UNL1        0.0013
      7 C         139.8626  140.7928  167.1661 C.ar    1  UNL1       -0.0208
      8 C         139.9458  142.2901  167.1303 C.ar    1  UNL1       -0.0042
      9 C         140.1580  142.9984  165.8252 C.ar    1  UNL1       -0.0003
     10 C         140.2870  142.2094  164.5560 C.ar    1  UNL1       -0.0000
     11 C         140.2038  140.7122  164.5918 C.ar    1  UNL1       -0.0003
     12 C         139.9916  140.0039  165.8968 C.ar    1  UNL1       -0.0042
     13 C         139.6504  140.0844  168.4712 C.3     1  UNL1        0.0437
     14 C         140.7999  139.8913  169.4153 C.3     1  UNL1        0.0768
     15 C         139.9906  142.7538  170.7571 C.3     1  UNL1        0.0173
     16 C         141.3644  142.3439  170.3160 C.3     1  UNL1        0.0576
     17 C         142.6074  143.1778  170.4142 C.3     1  UNL1        0.0174
     18 C         143.7477  142.3773  169.8581 C.3     1  UNL1        0.0187
     19 C         143.2093  141.0488  169.4162 C.3     1  UNL1        0.0721
     20 N         141.7364  141.0282  169.6992 N.3     1  UNL1       -0.2737
     21 S         141.1358  145.0429  159.3357 S.O2    1  UNL1        0.0087
     22 O         139.8405  145.7759  159.5229 O.2     1  UNL1       -0.1686
     23 O         142.4310  144.3100  159.1485 O.2     1  UNL1       -0.1686
     24 C         141.3480  145.7513  158.0306 C.3     1  UNL1        0.1560
     25 C         140.3187  145.6469  156.9445 C.3     1  UNL1        0.0290
     26 C         139.7541  146.8905  156.3243 C.3     1  UNL1        0.0339
     27 C         138.7248  146.7862  155.2382 C.3     1  UNL1        0.1422
     28 O         138.2600  145.4381  154.7724 O.3     1  UNL1       -0.3538
     29 C         138.8247  144.1946  155.3926 C.3     1  UNL1        0.1422
     30 C         139.8540  144.2990  156.4787 C.3     1  UNL1        0.0339
@<TRIPOS>BOND
     1    16    15    1
     2    16    17    1
     3    17    18    1
     4    18    19    1
     5    19    20    1
     6    20    14    1
     7    14    13    1
     8    13     7    1
     9     7     8   ar
    10     8     9   ar
    11     9    10   ar
    12    10     1    1
    13     1     2   ar
    14     2     3   ar
    15     3     4   ar
    16     4    21    1
    17    21    22    2
    18    21    23    2
    19    21    24    1
    20    24    25    1
    21    25    26    1
    22    26    27    1
    23    27    28    1
    24    28    29    1
    25    29    30    1
    26     4     5   ar
    27     5     6   ar
    28    10    11   ar
    29    11    12   ar
    30    20    16    1
    31    12     7   ar
    32     6     1   ar
    33    30    25    1
@<TRIPOS>MOLECULE
*****
 30 33 0 0 0
SMALL
GASTEIGER

@<TRIPOS>ATOM
      1 C         141.4923  142.5200  163.5011 C.ar    1  UNL1        0.0001
      2 C         140.8780  141.9361  162.2636 C.ar    1  UNL1        0.0013
      3 C         140.7672  142.7650  161.0183 C.ar    1  UNL1        0.0183
      4 C         141.2708  144.1779  161.0106 C.ar    1  UNL1        0.1057
      5 C         141.8852  144.7619  162.2482 C.ar    1  UNL1        0.0183
      6 C         141.9959  143.9330  163.4935 C.ar    1  UNL1        0.0013
      7 C         141.8246  140.0334  167.2369 C.ar    1  UNL1       -0.0208
      8 C         143.0462  140.6821  166.6567 C.ar    1  UNL1       -0.0042
      9 C         142.9354  141.5110  165.4115 C.ar    1  UNL1       -0.0003
     10 C         141.6030  141.6911  164.7464 C.ar    1  UNL1       -0.0000
     11 C         140.3814  141.0424  165.3267 C.ar    1  UNL1       -0.0003
     12 C         140.4922  140.2135  166.5719 C.ar    1  UNL1       -0.0042
     13 C         141.9353  139.2045  168.4822 C.3     1  UNL1        0.0437
     14 C         141.8266  139.8559  169.8289 C.3     1  UNL1        0.0768
     15 C         143.8170  142.4419  169.8247 C.3     1  UNL1        0.0173
     16 C         142.3215  142.4807  169.9338 C.3     1  UNL1        0.0576
     17 C         141.4783  143.7148  170.0601 C.3     1  UNL1        0.0174
     18 C         140.0422  143.2889  170.1400 C.3     1  UNL1        0.0187
     19 C         139.9979  141.7914  170.0632 C.3     1  UNL1        0.0721
     20 N         141.4066  141.2920  169.9357 N.3     1  UNL1       -0.2737
     21 S         141.1601  145.0068  159.7654 S.O2    1  UNL1        0.0087
     22 O         142.4645  144.4491  159.2782 O.2     1  UNL1       -0.1686
     23 O         139.8557  145.5646  160.2527 O.2     1  UNL1       -0.1686
     24 C         141.0494  145.8357  158.5202 C.3     1  UNL1        0.1560
     25 C         140.0815  145.4452  157.4429 C.3     1  UNL1        0.0290
     26 C         139.6180  144.0230  157.3305 C.3     1  UNL1        0.0339
     27 C         138.6501  143.6325  156.2532 C.3     1  UNL1        0.1422
     28 O         138.1457  144.6643  155.2882 O.3     1  UNL1       -0.3538
     29 C         138.6091  146.0864  155.4006 C.3     1  UNL1        0.1422
     30 C         139.5770  146.4769  156.4779 C.3     1  UNL1        0.0339
@<TRIPOS>BOND
     1    16    15    1
     2    16    17    1
     3    17    18    1
     4    18    19    1
     5    19    20    1
     6    20    14    1
     7    14    13    1
     8    13     7    1
     9     7     8   ar
    10     8     9   ar
    11     9    10   ar
    12    10     1    1
    13     1     2   ar
    14     2     3   ar
    15     3     4   ar
    16     4    21    1
    17    21    22    2
    18    21    23    2
    19    21    24    1
    20    24    25    1
    21    25    26    1
    22    26    27    1
    23    27    28    1
    24    28    29    1
    25    29    30    1
    26     4     5   ar
    27     5     6   ar
    28    10    11   ar
    29    11    12   ar
    30    20    16    1
    31    12     7   ar
    32     6     1   ar
    33    30    25    1
@<TRIPOS>MOLECULE
*****
 30 33 0 0 0
SMALL
GASTEIGER

@<TRIPOS>ATOM
      1 C         140.8143  138.5339  161.3556 C.ar    1  UNL1        0.0001
      2 C         139.8691  138.7304  160.2077 C.ar    1  UNL1        0.0013
      3 C         140.3248  138.4553  158.8053 C.ar    1  UNL1        0.0183
      4 C         141.7258  137.9837  158.5509 C.ar    1  UNL1        0.1057
      5 C         142.6711  137.7873  159.6989 C.ar    1  UNL1        0.0183
      6 C         142.2154  138.0624  161.1012 C.ar    1  UNL1        0.0013
      7 C         139.4473  139.3592  165.5628 C.ar    1  UNL1       -0.0208
      8 C         140.9127  139.3118  165.2461 C.ar    1  UNL1       -0.0042
      9 C         141.3683  139.0367  163.8437 C.ar    1  UNL1       -0.0003
     10 C         140.3586  138.8090  162.7581 C.ar    1  UNL1       -0.0000
     11 C         138.8932  138.8564  163.0748 C.ar    1  UNL1       -0.0003
     12 C         138.4376  139.1315  164.4771 C.ar    1  UNL1       -0.0042
     13 C         138.9915  139.6343  166.9652 C.3     1  UNL1        0.0437
     14 C         140.0013  139.8392  168.0553 C.3     1  UNL1        0.0768
     15 C         140.9072  142.7006  166.7745 C.3     1  UNL1        0.0173
     16 C         140.4814  142.4651  168.1933 C.3     1  UNL1        0.0576
     17 C         140.3971  143.5035  169.2725 C.3     1  UNL1        0.0174
     18 C         139.9286  142.8300  170.5283 C.3     1  UNL1        0.0187
     19 C         139.7233  141.3753  170.2252 C.3     1  UNL1        0.0721
     20 N         140.0649  141.1499  168.7821 N.3     1  UNL1       -0.2737
     21 S         142.1816  137.7086  157.1486 S.O2    1  UNL1        0.0087
     22 O         143.5311  138.2757  157.4759 O.2     1  UNL1       -0.1686
     23 O         140.8321  137.1415  156.8212 O.2     1  UNL1       -0.1686
     24 C         142.6373  137.4335  155.7463 C.3     1  UNL1        0.1560
     25 C         142.7383  136.0202  155.2541 C.3     1  UNL1        0.0290
     26 C         143.4548  134.9894  156.0752 C.3     1  UNL1        0.0339
     27 C         143.5558  133.5761  155.5830 C.3     1  UNL1        0.1422
     28 O         142.9401  133.1935  154.2697 O.3     1  UNL1       -0.3538
     29 C         142.2236  134.2242  153.4487 C.3     1  UNL1        0.1422
     30 C         142.1227  135.6375  153.9409 C.3     1  UNL1        0.0339
@<TRIPOS>BOND
     1    16    15    1
     2    16    17    1
     3    17    18    1
     4    18    19    1
     5    19    20    1
     6    20    14    1
     7    14    13    1
     8    13     7    1
     9     7     8   ar
    10     8     9   ar
    11     9    10   ar
    12    10     1    1
    13     1     2   ar
    14     2     3   ar
    15     3     4   ar
    16     4    21    1
    17    21    22    2
    18    21    23    2
    19    21    24    1
    20    24    25    1
    21    25    26    1
    22    26    27    1
    23    27    28    1
    24    28    29    1
    25    29    30    1
    26     4     5   ar
    27     5     6   ar
    28    10    11   ar
    29    11    12   ar
    30    20    16    1
    31    12     7   ar
    32     6     1   ar
    33    30    25    1
@<TRIPOS>MOLECULE
*****
 30 33 0 0 0
SMALL
GASTEIGER

@<TRIPOS>ATOM
      1 C         140.2333  143.7633  161.1374 C.ar    1  UNL1        0.0001
      2 C         139.6399  142.8884  160.0732 C.ar    1  UNL1        0.0013
      3 C         139.6296  143.3467  158.6449 C.ar    1  UNL1        0.0183
      4 C         140.2127  144.6799  158.2809 C.ar    1  UNL1        0.1057
      5 C         140.8061  145.5548  159.3451 C.ar    1  UNL1        0.0183
      6 C         140.8164  145.0965  160.7733 C.ar    1  UNL1        0.0013
      7 C         140.2644  142.3884  165.4220 C.ar    1  UNL1       -0.0208
      8 C         141.5374  142.8403  164.7702 C.ar    1  UNL1       -0.0042
      9 C         141.5271  143.2986  163.3420 C.ar    1  UNL1       -0.0003
     10 C         140.2436  143.3049  162.5656 C.ar    1  UNL1       -0.0000
     11 C         138.9705  142.8530  163.2175 C.ar    1  UNL1       -0.0003
     12 C         138.9809  142.3947  164.6457 C.ar    1  UNL1       -0.0042
     13 C         140.2747  141.9300  166.8503 C.3     1  UNL1        0.0437
     14 C         140.7949  140.5665  167.1967 C.3     1  UNL1        0.0768
     15 C         138.0168  139.1283  166.2676 C.3     1  UNL1        0.0173
     16 C         139.3935  138.7823  165.7831 C.3     1  UNL1        0.0576
     17 C         139.7350  137.7146  164.7865 C.3     1  UNL1        0.0174
     18 C         141.2231  137.7157  164.5975 C.3     1  UNL1        0.0187
     19 C         141.8013  138.7842  165.4775 C.3     1  UNL1        0.0721
     20 N         140.6705  139.4433  166.2101 N.3     1  UNL1       -0.2737
     21 S         140.2024  145.1383  156.8527 S.O2    1  UNL1        0.0087
     22 O         138.9325  144.3755  156.6171 O.2     1  UNL1       -0.1686
     23 O         141.4723  145.9010  157.0883 O.2     1  UNL1       -0.1686
     24 C         140.1921  145.5966  155.4245 C.3     1  UNL1        0.1560
     25 C         139.8707  147.0248  155.0975 C.3     1  UNL1        0.0290
     26 C         138.9720  147.8170  156.0003 C.3     1  UNL1        0.0339
     27 C         138.6506  149.2452  155.6732 C.3     1  UNL1        0.1422
     28 O         139.2278  149.8812  154.4434 O.3     1  UNL1       -0.3538
     29 C         140.1264  149.0890  153.5407 C.3     1  UNL1        0.1422
     30 C         140.4478  147.6608  153.8677 C.3     1  UNL1        0.0339
@<TRIPOS>BOND
     1    16    15    1
     2    16    17    1
     3    17    18    1
     4    18    19    1
     5    19    20    1
     6    20    14    1
     7    14    13    1
     8    13     7    1
     9     7     8   ar
    10     8     9   ar
    11     9    10   ar
    12    10     1    1
    13     1     2   ar
    14     2     3   ar
    15     3     4   ar
    16     4    21    1
    17    21    22    2
    18    21    23    2
    19    21    24    1
    20    24    25    1
    21    25    26    1
    22    26    27    1
    23    27    28    1
    24    28    29    1
    25    29    30    1
    26     4     5   ar
    27     5     6   ar
    28    10    11   ar
    29    11    12   ar
    30    20    16    1
    31    12     7   ar
    32     6     1   ar
    33    30    25    1
@<TRIPOS>MOLECULE
*****
 30 33 0 0 0
SMALL
GASTEIGER

@<TRIPOS>ATOM
      1 C         140.5013  138.4023  161.1201 C.ar    1  UNL1        0.0001
      2 C         141.9462  138.0895  160.8665 C.ar    1  UNL1        0.0013
      3 C         142.4450  137.9371  159.4601 C.ar    1  UNL1        0.0183
      4 C         141.4988  138.0976  158.3073 C.ar    1  UNL1        0.1057
      5 C         140.0538  138.4104  158.5609 C.ar    1  UNL1        0.0183
      6 C         139.5551  138.5627  159.9673 C.ar    1  UNL1        0.0013
      7 C         139.0051  138.8592  165.3394 C.ar    1  UNL1       -0.0208
      8 C         140.0789  137.8591  165.0287 C.ar    1  UNL1       -0.0042
      9 C         140.5776  137.7067  163.6223 C.ar    1  UNL1       -0.0003
     10 C         140.0026  138.5546  162.5266 C.ar    1  UNL1       -0.0000
     11 C         138.9288  139.5548  162.8374 C.ar    1  UNL1       -0.0003
     12 C         138.4301  139.7071  164.2438 C.ar    1  UNL1       -0.0042
     13 C         138.5064  139.0116  166.7459 C.3     1  UNL1        0.0437
     14 C         139.3054  139.7956  167.7442 C.3     1  UNL1        0.0768
     15 C         142.5344  139.3992  168.0012 C.3     1  UNL1        0.0173
     16 C         141.8367  140.5793  167.3926 C.3     1  UNL1        0.0576
     17 C         142.5007  141.7844  166.7952 C.3     1  UNL1        0.0174
     18 C         141.4268  142.7115  166.3079 C.3     1  UNL1        0.0187
     19 C         140.0991  142.0793  166.6041 C.3     1  UNL1        0.0721
     20 N         140.3525  140.7616  167.2745 N.3     1  UNL1       -0.2737
     21 S         141.9975  137.9453  156.9008 S.O2    1  UNL1        0.0087
     22 O         143.3909  138.2555  157.3613 O.2     1  UNL1       -0.1686
     23 O         140.6041  137.6350  156.4404 O.2     1  UNL1       -0.1686
     24 C         142.4962  137.7929  155.4944 C.3     1  UNL1        0.1560
     25 C         142.4521  136.4517  154.8242 C.3     1  UNL1        0.0290
     26 C         142.9818  135.2409  155.5337 C.3     1  UNL1        0.0339
     27 C         142.9377  133.8997  154.8635 C.3     1  UNL1        0.1422
     28 O         142.3639  133.7694  153.4836 O.3     1  UNL1       -0.3538
     29 C         141.8343  134.9802  152.7741 C.3     1  UNL1        0.1422
     30 C         141.8784  136.3213  153.4444 C.3     1  UNL1        0.0339
@<TRIPOS>BOND
     1    16    15    1
     2    16    17    1
     3    17    18    1
     4    18    19    1
     5    19    20    1
     6    20    14    1
     7    14    13    1
     8    13     7    1
     9     7     8   ar
    10     8     9   ar
    11     9    10   ar
    12    10     1    1
    13     1     2   ar
    14     2     3   ar
    15     3     4   ar
    16     4    21    1
    17    21    22    2
    18    21    23    2
    19    21    24    1
    20    24    25    1
    21    25    26    1
    22    26    27    1
    23    27    28    1
    24    28    29    1
    25    29    30    1
    26     4     5   ar
    27     5     6   ar
    28    10    11   ar
    29    11    12   ar
    30    20    16    1
    31    12     7   ar
    32     6     1   ar
    33    30    25    1
@<TRIPOS>MOLECULE
*****
 30 33 0 0 0
SMALL
GASTEIGER

@<TRIPOS>ATOM
      1 C         139.3397  142.9807  160.4934 C.ar    1  UNL1        0.0001
      2 C         138.8630  142.4127  159.1895 C.ar    1  UNL1        0.0013
      3 C         139.1164  143.1547  157.9107 C.ar    1  UNL1        0.0183
      4 C         139.8465  144.4648  157.9359 C.ar    1  UNL1        0.1057
      5 C         140.3233  145.0328  159.2398 C.ar    1  UNL1        0.0183
      6 C         140.0698  144.2908  160.5185 C.ar    1  UNL1        0.0013
      7 C         138.5794  140.7548  164.3297 C.ar    1  UNL1       -0.0208
      8 C         137.9865  142.1170  164.1228 C.ar    1  UNL1       -0.0042
      9 C         138.2400  142.8589  162.8441 C.ar    1  UNL1       -0.0003
     10 C         139.0863  142.2387  161.7722 C.ar    1  UNL1       -0.0000
     11 C         139.6792  140.8765  161.9790 C.ar    1  UNL1       -0.0003
     12 C         139.4257  140.1345  163.2577 C.ar    1  UNL1       -0.0042
     13 C         138.3260  140.0127  165.6085 C.3     1  UNL1        0.0437
     14 C         139.4607  139.7256  166.5465 C.3     1  UNL1        0.0768
     15 C         140.9974  142.6025  166.4405 C.3     1  UNL1        0.0173
     16 C         140.4228  141.9545  167.6652 C.3     1  UNL1        0.0576
     17 C         140.4537  142.5151  169.0562 C.3     1  UNL1        0.0174
     18 C         139.7664  141.5391  169.9646 C.3     1  UNL1        0.0187
     19 C         139.3107  140.3753  169.1350 C.3     1  UNL1        0.0721
     20 N         139.7165  140.6322  167.7139 N.3     1  UNL1       -0.2737
     21 S         140.1000  145.2068  156.6572 S.O2    1  UNL1        0.0087
     22 O         138.9970  144.4378  155.9923 O.2     1  UNL1       -0.1686
     23 O         141.2029  145.9758  157.3220 O.2     1  UNL1       -0.1686
     24 C         140.3534  145.9488  155.3785 C.3     1  UNL1        0.1560
     25 C         139.8646  147.3580  155.2195 C.3     1  UNL1        0.0290
     26 C         138.9351  147.9488  156.2380 C.3     1  UNL1        0.0339
     27 C         138.4463  149.3580  156.0790 C.3     1  UNL1        0.1422
     28 O         138.8869  150.1763  154.9017 O.3     1  UNL1       -0.3538
     29 C         139.8163  149.5855  153.8833 C.3     1  UNL1        0.1422
     30 C         140.3051  148.1764  154.0422 C.3     1  UNL1        0.0339
@<TRIPOS>BOND
     1    16    15    1
     2    16    17    1
     3    17    18    1
     4    18    19    1
     5    19    20    1
     6    20    14    1
     7    14    13    1
     8    13     7    1
     9     7     8   ar
    10     8     9   ar
    11     9    10   ar
    12    10     1    1
    13     1     2   ar
    14     2     3   ar
    15     3     4   ar
    16     4    21    1
    17    21    22    2
    18    21    23    2
    19    21    24    1
    20    24    25    1
    21    25    26    1
    22    26    27    1
    23    27    28    1
    24    28    29    1
    25    29    30    1
    26     4     5   ar
    27     5     6   ar
    28    10    11   ar
    29    11    12   ar
    30    20    16    1
    31    12     7   ar
    32     6     1   ar
    33    30    25    1
@<TRIPOS>MOLECULE
*****
 30 33 0 0 0
SMALL
GASTEIGER

@<TRIPOS>ATOM
      1 C         142.9156  140.0903  159.5083 C.ar    1  UNL1        0.0001
      2 C         143.2350  140.4798  158.0955 C.ar    1  UNL1        0.0013
      3 C         143.2265  139.4431  157.0114 C.ar    1  UNL1        0.0183
      4 C         142.8984  138.0168  157.3403 C.ar    1  UNL1        0.1057
      5 C         142.5789  137.6273  158.7532 C.ar    1  UNL1        0.0183
      6 C         142.5875  138.6641  159.8372 C.ar    1  UNL1        0.0013
      7 C         142.9413  143.2004  162.7604 C.ar    1  UNL1       -0.0208
      8 C         142.2709  141.8788  162.9920 C.ar    1  UNL1       -0.0042
      9 C         142.2623  140.8421  161.9079 C.ar    1  UNL1       -0.0003
     10 C         142.9241  141.1271  160.5924 C.ar    1  UNL1       -0.0000
     11 C         143.5945  142.4488  160.3608 C.ar    1  UNL1       -0.0003
     12 C         143.6031  143.4854  161.4449 C.ar    1  UNL1       -0.0042
     13 C         142.9499  144.2372  163.8445 C.3     1  UNL1        0.0437
     14 C         141.8998  145.3081  163.8664 C.3     1  UNL1        0.0768
     15 C         140.1146  145.3190  161.1347 C.3     1  UNL1        0.0173
     16 C         139.6293  144.9442  162.5036 C.3     1  UNL1        0.0576
     17 C         138.2382  144.5085  162.8572 C.3     1  UNL1        0.0174
     18 C         138.1990  144.2342  164.3314 C.3     1  UNL1        0.0187
     19 C         139.5659  144.5004  164.8889 C.3     1  UNL1        0.0721
     20 N         140.4498  144.9392  163.7592 N.3     1  UNL1       -0.2737
     21 S         142.8898  136.9801  156.2563 S.O2    1  UNL1        0.0087
     22 O         141.4512  136.6789  156.5557 O.2     1  UNL1       -0.1686
     23 O         144.3284  137.2812  155.9569 O.2     1  UNL1       -0.1686
     24 C         142.8812  135.9433  155.1723 C.3     1  UNL1        0.1560
     25 C         142.6832  134.4974  155.5190 C.3     1  UNL1        0.0290
     26 C         143.5111  133.8647  156.5981 C.3     1  UNL1        0.0339
     27 C         143.3131  132.4188  156.9447 C.3     1  UNL1        0.1422
     28 O         142.2873  131.6056  156.2122 O.3     1  UNL1       -0.3538
     29 C         141.4595  132.2383  155.1332 C.3     1  UNL1        0.1422
     30 C         141.6574  133.6842  154.7866 C.3     1  UNL1        0.0339
@<TRIPOS>BOND
     1    16    15    1
     2    16    17    1
     3    17    18    1
     4    18    19    1
     5    19    20    1
     6    20    14    1
     7    14    13    1
     8    13     7    1
     9     7     8   ar
    10     8     9   ar
    11     9    10   ar
    12    10     1    1
    13     1     2   ar
    14     2     3   ar
    15     3     4   ar
    16     4    21    1
    17    21    22    2
    18    21    23    2
    19    21    24    1
    20    24    25    1
    21    25    26    1
    22    26    27    1
    23    27    28    1
    24    28    29    1
    25    29    30    1
    26     4     5   ar
    27     5     6   ar
    28    10    11   ar
    29    11    12   ar
    30    20    16    1
    31    12     7   ar
    32     6     1   ar
    33    30    25    1
@<TRIPOS>MOLECULE
*****
 30 33 0 0 0
SMALL
GASTEIGER

@<TRIPOS>ATOM
      1 C         141.6827  143.8736  161.7198 C.ar    1  UNL1        0.0001
      2 C         140.6290  144.9061  161.4486 C.ar    1  UNL1        0.0013
      3 C         140.3660  145.3581  160.0426 C.ar    1  UNL1        0.0183
      4 C         141.1567  144.7774  158.9079 C.ar    1  UNL1        0.1057
      5 C         142.2105  143.7448  159.1792 C.ar    1  UNL1        0.0183
      6 C         142.4734  143.2930  160.5851 C.ar    1  UNL1        0.0013
      7 C         142.4717  142.5179  165.9375 C.ar    1  UNL1       -0.0208
      8 C         143.5718  142.4778  164.9186 C.ar    1  UNL1       -0.0042
      9 C         143.3088  142.9297  163.5128 C.ar    1  UNL1       -0.0003
     10 C         141.9457  143.4217  163.1257 C.ar    1  UNL1       -0.0000
     11 C         140.8456  143.4619  164.1446 C.ar    1  UNL1       -0.0003
     12 C         141.1086  143.0100  165.5505 C.ar    1  UNL1       -0.0042
     13 C         142.7347  142.0660  167.3435 C.3     1  UNL1        0.0437
     14 C         142.1581  140.7717  167.8355 C.3     1  UNL1        0.0768
     15 C         142.8543  138.8148  165.3186 C.3     1  UNL1        0.0173
     16 C         141.4828  139.1274  165.8392 C.3     1  UNL1        0.0576
     17 C         140.1905  138.5954  165.2943 C.3     1  UNL1        0.0174
     18 C         139.0717  139.1661  166.1145 C.3     1  UNL1        0.0187
     19 C         139.6726  140.0508  167.1663 C.3     1  UNL1        0.0721
     20 N         141.1628  140.0269  166.9961 N.3     1  UNL1       -0.2737
     21 S         140.8938  145.2292  157.5020 S.O2    1  UNL1        0.0087
     22 O         139.6299  144.4218  157.4788 O.2     1  UNL1       -0.1686
     23 O         142.1577  146.0367  157.5251 O.2     1  UNL1       -0.1686
     24 C         140.6308  145.6811  156.0961 C.3     1  UNL1        0.1560
     25 C         139.9932  147.0152  155.8439 C.3     1  UNL1        0.0290
     26 C         139.1116  147.6344  156.8877 C.3     1  UNL1        0.0339
     27 C         138.4740  148.9685  156.6356 C.3     1  UNL1        0.1422
     28 O         138.7179  149.6834  155.3396 O.3     1  UNL1       -0.3538
     29 C         139.5994  149.0641  154.2958 C.3     1  UNL1        0.1422
     30 C         140.2370  147.7300  154.5480 C.3     1  UNL1        0.0339
@<TRIPOS>BOND
     1    16    15    1
     2    16    17    1
     3    17    18    1
     4    18    19    1
     5    19    20    1
     6    20    14    1
     7    14    13    1
     8    13     7    1
     9     7     8   ar
    10     8     9   ar
    11     9    10   ar
    12    10     1    1
    13     1     2   ar
    14     2     3   ar
    15     3     4   ar
    16     4    21    1
    17    21    22    2
    18    21    23    2
    19    21    24    1
    20    24    25    1
    21    25    26    1
    22    26    27    1
    23    27    28    1
    24    28    29    1
    25    29    30    1
    26     4     5   ar
    27     5     6   ar
    28    10    11   ar
    29    11    12   ar
    30    20    16    1
    31    12     7   ar
    32     6     1   ar
    33    30    25    1
