@<TRIPOS>MOLECULE
*****
 35 40 0 0 0
SMALL
GASTEIGER

@<TRIPOS>ATOM
      1 S         140.4796  145.3959  158.6000 S.3     1  UNL1       -0.0756
      2 C         142.7577  143.9032  161.3654 C.ar    1  UNL1        0.1669
      3 N         143.4869  143.4748  160.1266 N.ar    1  UNL1       -0.1282
      4 N         142.7224  143.9818  158.9400 N.ar    1  UNL1       -0.1221
      5 C         141.5206  144.7236  159.4453 C.ar    1  UNL1        0.1932
      6 N         141.5424  144.6750  160.9443 N.ar    1  UNL1       -0.2884
      7 C         140.5272  145.2902  161.8613 C.3     1  UNL1        0.1340
      8 C         142.2375  138.1629  165.1108 C.3     1  UNL1        0.0521
      9 C         142.4709  139.5250  164.5275 C.ar    1  UNL1        0.0593
     10 C         142.0574  139.8171  163.1155 C.ar    1  UNL1        0.0147
     11 C         142.2909  141.1791  162.5321 C.ar    1  UNL1        0.0028
     12 C         142.9378  142.2491  163.3608 C.ar    1  UNL1        0.0206
     13 C         143.1712  143.6112  162.7774 C.ar    1  UNL1        0.0374
     14 C         143.8181  144.6811  163.6061 C.ar    1  UNL1        0.0031
     15 C         144.2315  144.3890  165.0181 C.ar    1  UNL1        0.0016
     16 C         143.9981  143.0270  165.6014 C.ar    1  UNL1        0.0191
     17 C         143.3512  141.9571  164.7728 C.ar    1  UNL1        0.0810
     18 N         143.1178  140.5949  165.3561 N.ar    1  UNL1       -0.2497
     19 C         140.0139  144.7499  157.3288 C.3     1  UNL1        0.0666
     20 C         139.7557  143.2729  157.2891 C.3     1  UNL1        0.0294
     21 C         138.4867  142.7176  157.8646 C.3     1  UNL1        0.0730
     22 N         138.5403  141.7861  159.0390 N.3     1  UNL1       -0.2720
     23 C         138.8029  140.3452  158.7155 C.3     1  UNL1        0.0785
     24 C         138.9143  139.1810  159.6547 C.3     1  UNL1        0.0643
     25 C         138.7906  139.1702  161.1496 C.ar    1  UNL1        0.0740
     26 N         138.9237  137.9287  161.9808 N.ar    1  UNL1       -0.2311
     27 C         138.7404  138.3121  163.4194 C.ar    1  UNL1        0.1471
     28 C         138.7660  137.5060  164.6841 C.ar    1  UNL1        0.0374
     29 C         138.5452  138.1784  166.0066 C.ar    1  UNL1        0.0046
     30 C         138.2988  139.6569  166.0644 C.ar    1  UNL1        0.0191
     31 C         138.2732  140.4630  164.7997 C.ar    1  UNL1        0.0811
     32 N         138.4940  139.7906  163.4772 N.ar    1  UNL1       -0.2928
     33 C         138.5251  140.3209  162.0744 C.ar    1  UNL1        0.0577
     34 C         138.3175  141.7667  161.7327 C.3     1  UNL1        0.0627
     35 C         138.3243  142.4188  160.3818 C.3     1  UNL1        0.0784
@<TRIPOS>BOND
     1     8     9    1
     2     9    10   ar
     3    10    11   ar
     4    11    12   ar
     5    12    13   ar
     6    13     2    1
     7     2     3   ar
     8     3     4   ar
     9     4     5   ar
    10     5     1    1
    11     1    19    1
    12    19    20    1
    13    20    21    1
    14    21    22    1
    15    22    23    1
    16    23    24    1
    17    24    25    1
    18    25    26   ar
    19    26    27   ar
    20    27    28   ar
    21    28    29   ar
    22    29    30   ar
    23    30    31   ar
    24    31    32   ar
    25    32    33   ar
    26    33    34    1
    27    34    35    1
    28     5     6   ar
    29     6     7    1
    30    13    14   ar
    31    14    15   ar
    32    15    16   ar
    33    16    17   ar
    34    17    18   ar
    35    18     9   ar
    36    17    12   ar
    37     6     2   ar
    38    35    22    1
    39    33    25   ar
    40    32    27   ar
@<TRIPOS>MOLECULE
*****
 35 40 0 0 0
SMALL
GASTEIGER

@<TRIPOS>ATOM
      1 S         139.8742  143.8471  158.1222 S.3     1  UNL1       -0.0756
      2 C         139.6150  140.9419  160.6831 C.ar    1  UNL1        0.1669
      3 N         138.2166  141.4837  160.7168 N.ar    1  UNL1       -0.1282
      4 N         138.1435  142.6378  159.7616 N.ar    1  UNL1       -0.1221
      5 C         139.4967  142.8094  159.1376 C.ar    1  UNL1        0.1932
      6 N         140.4061  141.7613  159.7071 N.ar    1  UNL1       -0.2884
      7 C         141.8527  141.5667  159.3613 C.3     1  UNL1        0.1340
      8 C         138.0918  138.8391  167.0478 C.3     1  UNL1        0.0521
      9 C         138.6018  139.0754  165.6570 C.ar    1  UNL1        0.0593
     10 C         138.0852  140.2332  164.8554 C.ar    1  UNL1        0.0147
     11 C         138.5951  140.4695  163.4647 C.ar    1  UNL1        0.0028
     12 C         139.6216  139.5478  162.8755 C.ar    1  UNL1        0.0206
     13 C         140.1315  139.7841  161.4848 C.ar    1  UNL1        0.0374
     14 C         141.1579  138.8625  160.8957 C.ar    1  UNL1        0.0031
     15 C         141.6744  137.7047  161.6973 C.ar    1  UNL1        0.0016
     16 C         141.1645  137.4684  163.0880 C.ar    1  UNL1        0.0191
     17 C         140.1381  138.3900  163.6771 C.ar    1  UNL1        0.0810
     18 N         139.6282  138.1538  165.0679 N.ar    1  UNL1       -0.2497
     19 C         140.3479  145.1978  158.5707 C.3     1  UNL1        0.0666
     20 C         141.0855  145.3409  159.8689 C.3     1  UNL1        0.0294
     21 C         140.3328  145.6502  161.1289 C.3     1  UNL1        0.0730
     22 N         140.4901  144.7684  162.3321 N.3     1  UNL1       -0.2720
     23 C         139.6182  145.1061  163.5051 C.3     1  UNL1        0.0785
     24 C         139.5393  144.4243  164.8388 C.3     1  UNL1        0.0643
     25 C         140.3128  143.2363  165.3291 C.ar    1  UNL1        0.0740
     26 N         140.1400  142.6447  166.6966 N.ar    1  UNL1       -0.2311
     27 C         141.0766  141.4795  166.8194 C.ar    1  UNL1        0.1471
     28 C         141.3421  140.5190  167.9405 C.ar    1  UNL1        0.0374
     29 C         142.3593  139.4299  167.7699 C.ar    1  UNL1        0.0046
     30 C         143.1111  139.3014  166.4783 C.ar    1  UNL1        0.0191
     31 C         142.8456  140.2620  165.3572 C.ar    1  UNL1        0.0811
     32 N         141.8284  141.3510  165.5278 N.ar    1  UNL1       -0.2928
     33 C         141.3563  142.4368  164.6067 C.ar    1  UNL1        0.0577
     34 C         141.8840  142.6277  163.2156 C.3     1  UNL1        0.0627
     35 C         141.4984  143.6654  162.2033 C.3     1  UNL1        0.0784
@<TRIPOS>BOND
     1     8     9    1
     2     9    10   ar
     3    10    11   ar
     4    11    12   ar
     5    12    13   ar
     6    13     2    1
     7     2     3   ar
     8     3     4   ar
     9     4     5   ar
    10     5     1    1
    11     1    19    1
    12    19    20    1
    13    20    21    1
    14    21    22    1
    15    22    23    1
    16    23    24    1
    17    24    25    1
    18    25    26   ar
    19    26    27   ar
    20    27    28   ar
    21    28    29   ar
    22    29    30   ar
    23    30    31   ar
    24    31    32   ar
    25    32    33   ar
    26    33    34    1
    27    34    35    1
    28     5     6   ar
    29     6     7    1
    30    13    14   ar
    31    14    15   ar
    32    15    16   ar
    33    16    17   ar
    34    17    18   ar
    35    18     9   ar
    36    17    12   ar
    37     6     2   ar
    38    35    22    1
    39    33    25   ar
    40    32    27   ar
@<TRIPOS>MOLECULE
*****
 35 40 0 0 0
SMALL
GASTEIGER

@<TRIPOS>ATOM
      1 S         140.6293  144.9763  158.4057 S.3     1  UNL1       -0.0756
      2 C         141.7106  144.6199  162.1164 C.ar    1  UNL1        0.1669
      3 N         140.4646  145.4434  162.2554 N.ar    1  UNL1       -0.1282
      4 N         139.9079  145.6771  160.8823 N.ar    1  UNL1       -0.1221
      5 C         140.8098  144.9981  159.8947 C.ar    1  UNL1        0.1932
      6 N         141.9239  144.3447  160.6574 N.ar    1  UNL1       -0.2884
      7 C         143.0532  143.5547  160.0652 C.3     1  UNL1        0.1340
      8 C         142.4869  138.3994  164.9366 C.3     1  UNL1        0.0521
      9 C         142.5125  139.8380  164.5123 C.ar    1  UNL1        0.0593
     10 C         141.6341  140.3044  163.3894 C.ar    1  UNL1        0.0147
     11 C         141.6596  141.7429  162.9651 C.ar    1  UNL1        0.0028
     12 C         142.5635  142.7150  163.6636 C.ar    1  UNL1        0.0206
     13 C         142.5889  144.1535  163.2393 C.ar    1  UNL1        0.0374
     14 C         143.4928  145.1255  163.9379 C.ar    1  UNL1        0.0031
     15 C         144.3712  144.6591  165.0608 C.ar    1  UNL1        0.0016
     16 C         144.3457  143.2207  165.4851 C.ar    1  UNL1        0.0191
     17 C         143.4419  142.2486  164.7865 C.ar    1  UNL1        0.0810
     18 N         143.4163  140.8100  165.2108 N.ar    1  UNL1       -0.2497
     19 C         140.4079  143.6734  157.6961 C.3     1  UNL1        0.0666
     20 C         139.0148  143.2273  157.3644 C.3     1  UNL1        0.0294
     21 C         138.5483  141.8607  157.7703 C.3     1  UNL1        0.0730
     22 N         138.4624  141.4983  159.2233 N.3     1  UNL1       -0.2720
     23 C         138.1334  142.6253  160.1568 C.3     1  UNL1        0.0785
     24 C         137.9775  142.5892  161.6483 C.3     1  UNL1        0.0643
     25 C         138.1122  141.4170  162.5745 C.ar    1  UNL1        0.0740
     26 N         137.9304  141.5128  164.0604 N.ar    1  UNL1       -0.2311
     27 C         138.1419  140.1465  164.6423 C.ar    1  UNL1        0.1471
     28 C         138.0902  139.6371  166.0522 C.ar    1  UNL1        0.0374
     29 C         138.3511  138.1875  166.3358 C.ar    1  UNL1        0.0046
     30 C         138.6635  137.2473  165.2096 C.ar    1  UNL1        0.0191
     31 C         138.7151  137.7567  163.7997 C.ar    1  UNL1        0.0811
     32 N         138.4543  139.2063  163.5161 N.ar    1  UNL1       -0.2928
     33 C         138.4360  139.9915  162.2382 C.ar    1  UNL1        0.0577
     34 C         138.7051  139.3861  160.8923 C.3     1  UNL1        0.0627
     35 C         138.7168  140.0567  159.5506 C.3     1  UNL1        0.0784
@<TRIPOS>BOND
     1     8     9    1
     2     9    10   ar
     3    10    11   ar
     4    11    12   ar
     5    12    13   ar
     6    13     2    1
     7     2     3   ar
     8     3     4   ar
     9     4     5   ar
    10     5     1    1
    11     1    19    1
    12    19    20    1
    13    20    21    1
    14    21    22    1
    15    22    23    1
    16    23    24    1
    17    24    25    1
    18    25    26   ar
    19    26    27   ar
    20    27    28   ar
    21    28    29   ar
    22    29    30   ar
    23    30    31   ar
    24    31    32   ar
    25    32    33   ar
    26    33    34    1
    27    34    35    1
    28     5     6   ar
    29     6     7    1
    30    13    14   ar
    31    14    15   ar
    32    15    16   ar
    33    16    17   ar
    34    17    18   ar
    35    18     9   ar
    36    17    12   ar
    37     6     2   ar
    38    35    22    1
    39    33    25   ar
    40    32    27   ar
@<TRIPOS>MOLECULE
*****
 35 40 0 0 0
SMALL
GASTEIGER

@<TRIPOS>ATOM
      1 S         140.3547  142.2633  168.8224 S.3     1  UNL1       -0.0756
      2 C         141.6723  143.0298  165.2528 C.ar    1  UNL1        0.1669
      3 N         140.3112  143.6580  165.2005 N.ar    1  UNL1       -0.1282
      4 N         139.6519  143.4473  166.5312 N.ar    1  UNL1       -0.1221
      5 C         140.6056  142.6889  167.4061 C.ar    1  UNL1        0.1932
      6 N         141.8542  142.4309  166.6160 N.ar    1  UNL1       -0.2884
      7 C         143.0713  141.7020  167.1034 C.3     1  UNL1        0.1340
      8 C         143.8858  137.8557  161.3058 C.3     1  UNL1        0.0521
      9 C         143.5832  139.1430  162.0138 C.ar    1  UNL1        0.0593
     10 C         142.5801  139.1679  163.1288 C.ar    1  UNL1        0.0147
     11 C         142.2775  140.4552  163.8368 C.ar    1  UNL1        0.0028
     12 C         142.9780  141.7177  163.4298 C.ar    1  UNL1        0.0206
     13 C         142.6753  143.0050  164.1378 C.ar    1  UNL1        0.0374
     14 C         143.3757  144.2673  163.7308 C.ar    1  UNL1        0.0031
     15 C         144.3788  144.2425  162.6158 C.ar    1  UNL1        0.0016
     16 C         144.6814  142.9552  161.9078 C.ar    1  UNL1        0.0191
     17 C         143.9810  141.6928  162.3148 C.ar    1  UNL1        0.0810
     18 N         144.2836  140.4054  161.6068 N.ar    1  UNL1       -0.2497
     19 C         139.6946  140.9461  169.1039 C.3     1  UNL1        0.0666
     20 C         139.8194  139.8196  168.1215 C.3     1  UNL1        0.0294
     21 C         138.6293  139.3933  167.3140 C.3     1  UNL1        0.0730
     22 N         138.7140  139.3533  165.8169 N.3     1  UNL1       -0.2720
     23 C         139.0594  138.0213  165.2199 C.3     1  UNL1        0.0785
     24 C         139.2182  137.6577  163.7733 C.3     1  UNL1        0.0643
     25 C         139.0709  138.5362  162.5665 C.ar    1  UNL1        0.0740
     26 N         139.2573  138.0473  161.1607 N.ar    1  UNL1       -0.2311
     27 C         139.0300  139.2043  160.2335 C.ar    1  UNL1        0.1471
     28 C         139.0785  139.3171  158.7386 C.ar    1  UNL1        0.0374
     29 C         138.8000  140.6339  158.0764 C.ar    1  UNL1        0.0046
     30 C         138.4731  141.8379  158.9092 C.ar    1  UNL1        0.0191
     31 C         138.4246  141.7251  160.4041 C.ar    1  UNL1        0.0811
     32 N         138.7031  140.4084  161.0663 N.ar    1  UNL1       -0.2928
     33 C         138.7283  139.9954  162.5081 C.ar    1  UNL1        0.0577
     34 C         138.4485  140.9365  163.6423 C.3     1  UNL1        0.0627
     35 C         138.4422  140.6507  165.1148 C.3     1  UNL1        0.0784
@<TRIPOS>BOND
     1     8     9    1
     2     9    10   ar
     3    10    11   ar
     4    11    12   ar
     5    12    13   ar
     6    13     2    1
     7     2     3   ar
     8     3     4   ar
     9     4     5   ar
    10     5     1    1
    11     1    19    1
    12    19    20    1
    13    20    21    1
    14    21    22    1
    15    22    23    1
    16    23    24    1
    17    24    25    1
    18    25    26   ar
    19    26    27   ar
    20    27    28   ar
    21    28    29   ar
    22    29    30   ar
    23    30    31   ar
    24    31    32   ar
    25    32    33   ar
    26    33    34    1
    27    34    35    1
    28     5     6   ar
    29     6     7    1
    30    13    14   ar
    31    14    15   ar
    32    15    16   ar
    33    16    17   ar
    34    17    18   ar
    35    18     9   ar
    36    17    12   ar
    37     6     2   ar
    38    35    22    1
    39    33    25   ar
    40    32    27   ar
@<TRIPOS>MOLECULE
*****
 35 40 0 0 0
SMALL
GASTEIGER

@<TRIPOS>ATOM
      1 S         140.9685  145.4856  159.4272 S.3     1  UNL1       -0.0756
      2 C         141.0689  144.1153  163.0573 C.ar    1  UNL1        0.1669
      3 N         139.7955  144.9077  163.0817 N.ar    1  UNL1       -0.1282
      4 N         139.6029  145.5174  161.7249 N.ar    1  UNL1       -0.1221
      5 C         140.7573  145.1019  160.8619 C.ar    1  UNL1        0.1932
      6 N         141.6633  144.2354  161.6854 N.ar    1  UNL1       -0.2884
      7 C         142.9397  143.6003  161.2189 C.3     1  UNL1        0.1340
      8 C         138.3479  139.1496  166.9546 C.3     1  UNL1        0.0521
      9 C         139.1726  140.1970  166.2668 C.ar    1  UNL1        0.0593
     10 C         138.5950  140.9732  165.1206 C.ar    1  UNL1        0.0147
     11 C         139.4196  142.0205  164.4328 C.ar    1  UNL1        0.0028
     12 C         140.8219  142.2918  164.8913 C.ar    1  UNL1        0.0206
     13 C         141.6465  143.3391  164.2036 C.ar    1  UNL1        0.0374
     14 C         143.0486  143.6103  164.6621 C.ar    1  UNL1        0.0031
     15 C         143.6262  142.8341  165.8084 C.ar    1  UNL1        0.0016
     16 C         142.8016  141.7868  166.4962 C.ar    1  UNL1        0.0191
     17 C         141.3994  141.5156  166.0376 C.ar    1  UNL1        0.0810
     18 N         140.5747  140.4682  166.7254 N.ar    1  UNL1       -0.2497
     19 C         140.0108  145.0107  158.3750 C.3     1  UNL1        0.0666
     20 C         140.4690  144.0407  157.3267 C.3     1  UNL1        0.0294
     21 C         139.7554  142.7329  157.1519 C.3     1  UNL1        0.0730
     22 N         139.6229  141.7900  158.3110 N.3     1  UNL1       -0.2720
     23 C         138.2825  141.1350  158.4673 C.3     1  UNL1        0.0785
     24 C         137.8365  140.1551  159.5117 C.3     1  UNL1        0.0643
     25 C         138.6208  139.5880  160.6577 C.ar    1  UNL1        0.0740
     26 N         138.0548  138.6070  161.6412 N.ar    1  UNL1       -0.2311
     27 C         139.1289  138.2735  162.6337 C.ar    1  UNL1        0.1471
     28 C         139.1459  137.3643  163.8266 C.ar    1  UNL1        0.0374
     29 C         140.3929  137.2301  164.6495 C.ar    1  UNL1        0.0046
     30 C         141.6227  138.0051  164.2795 C.ar    1  UNL1        0.0191
     31 C         141.6056  138.9142  163.0866 C.ar    1  UNL1        0.0811
     32 N         140.3587  139.0485  162.2637 N.ar    1  UNL1       -0.2928
     33 C         140.0447  139.8609  161.0425 C.ar    1  UNL1        0.0577
     34 C         141.0361  140.7682  160.3761 C.3     1  UNL1        0.0627
     35 C         140.8483  141.6267  159.1605 C.3     1  UNL1        0.0784
@<TRIPOS>BOND
     1     8     9    1
     2     9    10   ar
     3    10    11   ar
     4    11    12   ar
     5    12    13   ar
     6    13     2    1
     7     2     3   ar
     8     3     4   ar
     9     4     5   ar
    10     5     1    1
    11     1    19    1
    12    19    20    1
    13    20    21    1
    14    21    22    1
    15    22    23    1
    16    23    24    1
    17    24    25    1
    18    25    26   ar
    19    26    27   ar
    20    27    28   ar
    21    28    29   ar
    22    29    30   ar
    23    30    31   ar
    24    31    32   ar
    25    32    33   ar
    26    33    34    1
    27    34    35    1
    28     5     6   ar
    29     6     7    1
    30    13    14   ar
    31    14    15   ar
    32    15    16   ar
    33    16    17   ar
    34    17    18   ar
    35    18     9   ar
    36    17    12   ar
    37     6     2   ar
    38    35    22    1
    39    33    25   ar
    40    32    27   ar
@<TRIPOS>MOLECULE
*****
 35 40 0 0 0
SMALL
GASTEIGER

@<TRIPOS>ATOM
      1 S         142.6265  140.4395  156.9614 S.3     1  UNL1       -0.0756
      2 C         141.5692  138.6503  160.2396 C.ar    1  UNL1        0.1669
      3 N         142.7905  137.8656  159.8619 N.ar    1  UNL1       -0.1282
      4 N         143.3352  138.4402  158.5880 N.ar    1  UNL1       -0.1221
      5 C         142.4506  139.5802  158.1783 C.ar    1  UNL1        0.1932
      6 N         141.3592  139.7100  159.1989 N.ar    1  UNL1       -0.2884
      7 C         140.2520  140.7219  159.1821 C.3     1  UNL1        0.1340
      8 C         143.0718  138.8474  166.9443 C.3     1  UNL1        0.0521
      9 C         142.4811  138.7396  165.5697 C.ar    1  UNL1        0.0593
     10 C         143.3413  138.9735  164.3633 C.ar    1  UNL1        0.0147
     11 C         142.7506  138.8658  162.9887 C.ar    1  UNL1        0.0028
     12 C         141.2997  138.5242  162.8205 C.ar    1  UNL1        0.0206
     13 C         140.7091  138.4164  161.4459 C.ar    1  UNL1        0.0374
     14 C         139.2582  138.0748  161.2778 C.ar    1  UNL1        0.0031
     15 C         138.3980  137.8410  162.4842 C.ar    1  UNL1        0.0016
     16 C         138.9887  137.9487  163.8587 C.ar    1  UNL1        0.0191
     17 C         140.4395  138.2903  164.0269 C.ar    1  UNL1        0.0810
     18 N         141.0303  138.3980  165.4015 N.ar    1  UNL1       -0.2497
     19 C         143.4355  141.7000  157.0439 C.3     1  UNL1        0.0666
     20 C         143.9389  142.1824  158.3719 C.3     1  UNL1        0.0294
     21 C         143.0811  143.0735  159.2205 C.3     1  UNL1        0.0730
     22 N         143.1175  142.9481  160.7148 N.3     1  UNL1       -0.2720
     23 C         144.4835  142.8511  161.3267 C.3     1  UNL1        0.0785
     24 C         144.8524  142.7183  162.7746 C.3     1  UNL1        0.0643
     25 C         143.9464  142.6498  163.9681 C.ar    1  UNL1        0.0740
     26 N         144.4440  142.5160  165.3768 N.ar    1  UNL1       -0.2311
     27 C         143.2529  142.4805  166.2878 C.ar    1  UNL1        0.1471
     28 C         143.1324  142.3608  167.7781 C.ar    1  UNL1        0.0374
     29 C         141.7781  142.3530  168.4228 C.ar    1  UNL1        0.0046
     30 C         140.5442  142.4650  167.5772 C.ar    1  UNL1        0.0191
     31 C         140.6647  142.5847  166.0868 C.ar    1  UNL1        0.0811
     32 N         142.0191  142.5925  165.4422 N.ar    1  UNL1       -0.2928
     33 C         142.4477  142.6971  164.0085 C.ar    1  UNL1        0.0577
     34 C         141.4848  142.8246  162.8653 C.3     1  UNL1        0.0627
     35 C         141.7829  142.9364  161.3995 C.3     1  UNL1        0.0784
@<TRIPOS>BOND
     1     8     9    1
     2     9    10   ar
     3    10    11   ar
     4    11    12   ar
     5    12    13   ar
     6    13     2    1
     7     2     3   ar
     8     3     4   ar
     9     4     5   ar
    10     5     1    1
    11     1    19    1
    12    19    20    1
    13    20    21    1
    14    21    22    1
    15    22    23    1
    16    23    24    1
    17    24    25    1
    18    25    26   ar
    19    26    27   ar
    20    27    28   ar
    21    28    29   ar
    22    29    30   ar
    23    30    31   ar
    24    31    32   ar
    25    32    33   ar
    26    33    34    1
    27    34    35    1
    28     5     6   ar
    29     6     7    1
    30    13    14   ar
    31    14    15   ar
    32    15    16   ar
    33    16    17   ar
    34    17    18   ar
    35    18     9   ar
    36    17    12   ar
    37     6     2   ar
    38    35    22    1
    39    33    25   ar
    40    32    27   ar
@<TRIPOS>MOLECULE
*****
 35 40 0 0 0
SMALL
GASTEIGER

@<TRIPOS>ATOM
      1 S         139.5226  143.5079  157.8520 S.3     1  UNL1       -0.0756
      2 C         139.5775  140.9960  160.8105 C.ar    1  UNL1        0.1669
      3 N         138.4457  141.8941  161.2137 N.ar    1  UNL1       -0.1282
      4 N         138.2874  142.9443  160.1546 N.ar    1  UNL1       -0.1221
      5 C         139.3213  142.6953  159.0967 C.ar    1  UNL1        0.1932
      6 N         140.1186  141.4913  159.5021 N.ar    1  UNL1       -0.2884
      7 C         141.2572  140.8882  158.7340 C.3     1  UNL1        0.1340
      8 C         137.9205  138.6574  167.0584 C.3     1  UNL1        0.0521
      9 C         138.4604  138.9457  165.6889 C.ar    1  UNL1        0.0593
     10 C         137.9580  140.1309  164.9189 C.ar    1  UNL1        0.0147
     11 C         138.4978  140.4193  163.5495 C.ar    1  UNL1        0.0028
     12 C         139.5401  139.5224  162.9499 C.ar    1  UNL1        0.0206
     13 C         140.0799  139.8108  161.5805 C.ar    1  UNL1        0.0374
     14 C         141.1222  138.9140  160.9811 C.ar    1  UNL1        0.0031
     15 C         141.6246  137.7288  161.7511 C.ar    1  UNL1        0.0016
     16 C         141.0848  137.4404  163.1205 C.ar    1  UNL1        0.0191
     17 C         140.0425  138.3372  163.7199 C.ar    1  UNL1        0.0810
     18 N         139.5027  138.0489  165.0894 N.ar    1  UNL1       -0.2497
     19 C         140.1212  144.8804  157.9409 C.3     1  UNL1        0.0666
     20 C         141.3681  145.1040  158.7441 C.3     1  UNL1        0.0294
     21 C         141.2805  145.2829  160.2308 C.3     1  UNL1        0.0730
     22 N         141.7217  144.1796  161.1463 N.3     1  UNL1       -0.2720
     23 C         142.8547  143.3332  160.6466 C.3     1  UNL1        0.0785
     24 C         143.5174  142.1667  161.3176 C.3     1  UNL1        0.0643
     25 C         143.2106  141.5586  162.6541 C.ar    1  UNL1        0.0740
     26 N         143.9531  140.3832  163.2172 N.ar    1  UNL1       -0.2311
     27 C         143.3669  140.0649  164.5607 C.ar    1  UNL1        0.1471
     28 C         143.6964  139.0104  165.5752 C.ar    1  UNL1        0.0374
     29 C         142.9210  138.9345  166.8570 C.ar    1  UNL1        0.0046
     30 C         141.8162  139.9132  167.1243 C.ar    1  UNL1        0.0191
     31 C         141.4867  140.9678  166.1098 C.ar    1  UNL1        0.0811
     32 N         142.2620  141.0436  164.8280 N.ar    1  UNL1       -0.2928
     33 C         142.1655  141.9668  163.6496 C.ar    1  UNL1        0.0577
     34 C         141.1689  143.0839  163.5545 C.3     1  UNL1        0.0627
     35 C         140.9714  144.0687  162.4404 C.3     1  UNL1        0.0784
@<TRIPOS>BOND
     1     8     9    1
     2     9    10   ar
     3    10    11   ar
     4    11    12   ar
     5    12    13   ar
     6    13     2    1
     7     2     3   ar
     8     3     4   ar
     9     4     5   ar
    10     5     1    1
    11     1    19    1
    12    19    20    1
    13    20    21    1
    14    21    22    1
    15    22    23    1
    16    23    24    1
    17    24    25    1
    18    25    26   ar
    19    26    27   ar
    20    27    28   ar
    21    28    29   ar
    22    29    30   ar
    23    30    31   ar
    24    31    32   ar
    25    32    33   ar
    26    33    34    1
    27    34    35    1
    28     5     6   ar
    29     6     7    1
    30    13    14   ar
    31    14    15   ar
    32    15    16   ar
    33    16    17   ar
    34    17    18   ar
    35    18     9   ar
    36    17    12   ar
    37     6     2   ar
    38    35    22    1
    39    33    25   ar
    40    32    27   ar
@<TRIPOS>MOLECULE
*****
 35 40 0 0 0
SMALL
GASTEIGER

@<TRIPOS>ATOM
      1 S         142.7835  139.0462  158.0897 S.3     1  UNL1       -0.0756
      2 C         142.6574  139.0521  161.9690 C.ar    1  UNL1        0.1669
      3 N         142.8249  137.5885  161.6867 N.ar    1  UNL1       -0.1282
      4 N         142.8925  137.4081  160.1992 N.ar    1  UNL1       -0.1221
      5 C         142.7668  138.7603  159.5621 C.ar    1  UNL1        0.1932
      6 N         142.6215  139.7763  160.6559 N.ar    1  UNL1       -0.2884
      7 C         142.4673  141.2567  160.4695 C.3     1  UNL1        0.1340
      8 C         137.7773  138.5305  166.7819 C.3     1  UNL1        0.0521
      9 C         138.9694  138.8182  165.9179 C.ar    1  UNL1        0.0593
     10 C         139.0813  138.1892  164.5608 C.ar    1  UNL1        0.0147
     11 C         140.2733  138.4768  163.6969 C.ar    1  UNL1        0.0028
     12 C         141.3534  139.3935  164.1901 C.ar    1  UNL1        0.0206
     13 C         142.5454  139.6811  163.3262 C.ar    1  UNL1        0.0374
     14 C         143.6254  140.5977  163.8194 C.ar    1  UNL1        0.0031
     15 C         143.5135  141.2267  165.1766 C.ar    1  UNL1        0.0016
     16 C         142.3215  140.9390  166.0405 C.ar    1  UNL1        0.0191
     17 C         141.2415  140.0224  165.5472 C.ar    1  UNL1        0.0810
     18 N         140.0494  139.7348  166.4112 N.ar    1  UNL1       -0.2497
     19 C         142.2118  138.0494  157.1256 C.3     1  UNL1        0.0666
     20 C         140.7626  137.6715  157.2088 C.3     1  UNL1        0.0294
     21 C         139.7031  138.7144  157.0097 C.3     1  UNL1        0.0730
     22 N         139.4629  139.7511  158.0670 N.3     1  UNL1       -0.2720
     23 C         139.6234  141.1767  157.6290 C.3     1  UNL1        0.0785
     24 C         139.4546  142.4283  158.4383 C.3     1  UNL1        0.0643
     25 C         139.0838  142.5634  159.8854 C.ar    1  UNL1        0.0740
     26 N         138.9462  143.8840  160.5834 N.ar    1  UNL1       -0.2311
     27 C         138.5674  143.6170  162.0101 C.ar    1  UNL1        0.1471
     28 C         138.2979  144.5347  163.1655 C.ar    1  UNL1        0.0374
     29 C         137.9320  143.9669  164.5048 C.ar    1  UNL1        0.0046
     30 C         137.8355  142.4813  164.6885 C.ar    1  UNL1        0.0191
     31 C         138.1050  141.5636  163.5330 C.ar    1  UNL1        0.0811
     32 N         138.4710  142.1315  162.1938 N.ar    1  UNL1       -0.2928
     33 C         138.7901  141.4803  160.8807 C.ar    1  UNL1        0.0577
     34 C         138.7947  139.9945  160.6746 C.3     1  UNL1        0.0627
     35 C         139.0942  139.2250  159.4224 C.3     1  UNL1        0.0784
@<TRIPOS>BOND
     1     8     9    1
     2     9    10   ar
     3    10    11   ar
     4    11    12   ar
     5    12    13   ar
     6    13     2    1
     7     2     3   ar
     8     3     4   ar
     9     4     5   ar
    10     5     1    1
    11     1    19    1
    12    19    20    1
    13    20    21    1
    14    21    22    1
    15    22    23    1
    16    23    24    1
    17    24    25    1
    18    25    26   ar
    19    26    27   ar
    20    27    28   ar
    21    28    29   ar
    22    29    30   ar
    23    30    31   ar
    24    31    32   ar
    25    32    33   ar
    26    33    34    1
    27    34    35    1
    28     5     6   ar
    29     6     7    1
    30    13    14   ar
    31    14    15   ar
    32    15    16   ar
    33    16    17   ar
    34    17    18   ar
    35    18     9   ar
    36    17    12   ar
    37     6     2   ar
    38    35    22    1
    39    33    25   ar
    40    32    27   ar
@<TRIPOS>MOLECULE
*****
 35 40 0 0 0
SMALL
GASTEIGER

@<TRIPOS>ATOM
      1 S         142.7811  139.9615  156.8651 S.3     1  UNL1       -0.0756
      2 C         141.5164  138.5633  160.2579 C.ar    1  UNL1        0.1669
      3 N         142.7194  137.6998  160.0189 N.ar    1  UNL1       -0.1282
      4 N         143.3396  138.1184  158.7190 N.ar    1  UNL1       -0.1221
      5 C         142.5199  139.2407  158.1545 C.ar    1  UNL1        0.1932
      6 N         141.3931  139.5156  159.1056 N.ar    1  UNL1       -0.2884
      7 C         140.3297  140.5596  158.9345 C.3     1  UNL1        0.1340
      8 C         142.6510  139.8127  166.9214 C.3     1  UNL1        0.0521
      9 C         142.1377  139.4814  165.5514 C.ar    1  UNL1        0.0593
     10 C         143.0562  139.5570  164.3679 C.ar    1  UNL1        0.0147
     11 C         142.5429  139.2258  162.9979 C.ar    1  UNL1        0.0028
     12 C         141.1112  138.8190  162.8114 C.ar    1  UNL1        0.0206
     13 C         140.5980  138.4878  161.4415 C.ar    1  UNL1        0.0374
     14 C         139.1663  138.0810  161.2550 C.ar    1  UNL1        0.0031
     15 C         138.2479  138.0054  162.4386 C.ar    1  UNL1        0.0016
     16 C         138.7611  138.3366  163.8085 C.ar    1  UNL1        0.0191
     17 C         140.1928  138.7434  163.9950 C.ar    1  UNL1        0.0810
     18 N         140.7061  139.0747  165.3650 N.ar    1  UNL1       -0.2497
     19 C         144.1616  140.4553  156.5484 C.3     1  UNL1        0.0666
     20 C         144.9497  141.1966  157.5872 C.3     1  UNL1        0.0294
     21 C         144.6125  142.6225  157.9084 C.3     1  UNL1        0.0730
     22 N         143.4760  142.9336  158.8366 N.3     1  UNL1       -0.2720
     23 C         142.4381  143.8755  158.3019 C.3     1  UNL1        0.0785
     24 C         141.1956  144.3781  158.9753 C.3     1  UNL1        0.0643
     25 C         140.6840  144.0630  160.3497 C.ar    1  UNL1        0.0740
     26 N         139.4163  144.6357  160.9109 N.ar    1  UNL1       -0.2311
     27 C         139.2373  144.0941  162.2983 C.ar    1  UNL1        0.1471
     28 C         138.1703  144.3100  163.3301 C.ar    1  UNL1        0.0374
     29 C         138.2603  143.6184  164.6581 C.ar    1  UNL1        0.0046
     30 C         139.4175  142.7111  164.9543 C.ar    1  UNL1        0.0191
     31 C         140.4845  142.4952  163.9225 C.ar    1  UNL1        0.0811
     32 N         140.3945  143.1867  162.5945 N.ar    1  UNL1       -0.2928
     33 C         141.2885  143.1675  161.3902 C.ar    1  UNL1        0.0577
     34 C         142.5541  142.3659  161.3132 C.3     1  UNL1        0.0627
     35 C         143.5275  142.2618  160.1767 C.3     1  UNL1        0.0784
@<TRIPOS>BOND
     1     8     9    1
     2     9    10   ar
     3    10    11   ar
     4    11    12   ar
     5    12    13   ar
     6    13     2    1
     7     2     3   ar
     8     3     4   ar
     9     4     5   ar
    10     5     1    1
    11     1    19    1
    12    19    20    1
    13    20    21    1
    14    21    22    1
    15    22    23    1
    16    23    24    1
    17    24    25    1
    18    25    26   ar
    19    26    27   ar
    20    27    28   ar
    21    28    29   ar
    22    29    30   ar
    23    30    31   ar
    24    31    32   ar
    25    32    33   ar
    26    33    34    1
    27    34    35    1
    28     5     6   ar
    29     6     7    1
    30    13    14   ar
    31    14    15   ar
    32    15    16   ar
    33    16    17   ar
    34    17    18   ar
    35    18     9   ar
    36    17    12   ar
    37     6     2   ar
    38    35    22    1
    39    33    25   ar
    40    32    27   ar
