@<TRIPOS>MOLECULE
*****
 33 37 0 0 0
SMALL
GASTEIGER

@<TRIPOS>ATOM
      1 C         143.1723  139.8679  164.8872 C.ar    1  UNL1        0.0807
      2 C         141.8785  140.6143  165.0249 C.ar    1  UNL1        0.0026
      3 C         141.1016  140.5385  166.3059 C.ar    1  UNL1       -0.0196
      4 C         141.6184  139.7162  167.4489 C.ar    1  UNL1       -0.0019
      5 C         142.9122  138.9698  167.3112 C.ar    1  UNL1        0.0295
      6 C         143.6891  139.0456  166.0303 C.ar    1  UNL1        0.1444
      7 F         144.9829  138.2992  165.8926 F       1  UNL1       -0.2040
      8 O         145.3488  140.4833  163.6090 O.2     1  UNL1       -0.2698
      9 C         143.9492  139.9438  163.6063 C.2     1  UNL1        0.2512
     10 N         143.3266  139.4801  162.3229 N.am    1  UNL1       -0.2759
     11 C         141.9270  138.9407  162.3202 C.3     1  UNL1        0.0951
     12 C         141.3043  138.4770  161.0367 C.3     1  UNL1        0.0375
     13 C         142.0812  138.5529  159.7559 C.3     1  UNL1        0.0609
     14 C         143.4808  139.0924  159.7585 C.3     1  UNL1        0.0375
     15 C         144.1035  139.5560  161.0420 C.3     1  UNL1        0.0951
     16 N         141.4586  138.0892  158.4724 N.3     1  UNL1       -0.2738
     17 C         140.0326  138.3000  158.0576 C.3     1  UNL1        0.0721
     18 C         139.8452  137.6745  156.7072 C.3     1  UNL1        0.0188
     19 C         141.1555  137.0771  156.2874 C.3     1  UNL1        0.0188
     20 C         142.1526  137.3334  157.3783 C.3     1  UNL1        0.0721
     21 C         139.8078  141.2849  166.4436 C.3     1  UNL1        0.0549
     22 C         139.3953  142.2712  165.3914 C.3     1  UNL1        0.1295
     23 C         139.5792  143.7410  165.6279 C.2     1  UNL1        0.0853
     24 N         139.1667  144.7272  164.5757 N.am    1  UNL1       -0.1757
     25 C         138.5702  144.2437  163.2871 C.2     1  UNL1        0.2847
     26 O         138.1577  145.2301  162.2349 O.2     1  UNL1       -0.2664
     27 C         138.3863  142.7740  163.0507 C.ar    1  UNL1        0.1177
     28 C         137.8303  142.0062  161.8882 C.ar    1  UNL1        0.0356
     29 C         137.8992  140.5454  162.2219 C.ar    1  UNL1        0.0859
     30 CL        137.4487  139.4176  161.3414 Cl      1  UNL1       -0.0798
     31 C         138.4978  140.4103  163.5906 C.ar    1  UNL1        0.1299
     32 CL        138.7509  139.1238  164.3192 Cl      1  UNL1       -0.0622
     33 N         138.7988  141.7877  164.1028 N.ar    1  UNL1       -0.3105
@<TRIPOS>BOND
     1     8     9    2
     2     9     1    1
     3     1     2   ar
     4     2     3   ar
     5     3    21    1
     6    21    22    1
     7    22    23    1
     8    23    24    2
     9    24    25    1
    10    25    26    2
    11    25    27    1
    12    27    28   ar
    13    28    29   ar
    14    29    30    1
    15    29    31   ar
    16    31    32    1
    17    31    33   ar
    18     3     4   ar
    19     4     5   ar
    20     5     6   ar
    21     6     7    1
    22     9    10   am
    23    10    11    1
    24    11    12    1
    25    12    13    1
    26    13    16    1
    27    16    17    1
    28    17    18    1
    29    18    19    1
    30    19    20    1
    31    13    14    1
    32    14    15    1
    33     6     1   ar
    34    15    10    1
    35    33    22    1
    36    20    16    1
    37    33    27   ar
@<TRIPOS>MOLECULE
*****
 33 37 0 0 0
SMALL
GASTEIGER

@<TRIPOS>ATOM
      1 C         140.6392  143.7244  162.6335 C.ar    1  UNL1        0.0807
      2 C         141.0389  142.4391  163.2956 C.ar    1  UNL1        0.0026
      3 C         140.6505  142.1772  164.7207 C.ar    1  UNL1       -0.0196
      4 C         139.8625  143.2005  165.4835 C.ar    1  UNL1       -0.0019
      5 C         139.4628  144.4857  164.8213 C.ar    1  UNL1        0.0295
      6 C         139.8512  144.7477  163.3964 C.ar    1  UNL1        0.1444
      7 F         139.4515  146.0329  162.7342 F       1  UNL1       -0.2040
      8 O         142.3233  144.6755  160.8989 O.2     1  UNL1       -0.2698
      9 C         141.0275  143.9863  161.2085 C.2     1  UNL1        0.2512
     10 N         140.1201  143.5591  160.0932 N.am    1  UNL1       -0.2759
     11 C         138.8243  142.8699  160.4028 C.3     1  UNL1        0.0951
     12 C         137.9169  142.4426  159.2874 C.3     1  UNL1        0.0375
     13 C         138.3052  142.7046  157.8625 C.3     1  UNL1        0.0609
     14 C         139.6010  143.3938  157.5529 C.3     1  UNL1        0.0375
     15 C         140.5084  143.8210  158.6682 C.3     1  UNL1        0.0951
     16 N         137.3977  142.2773  156.7471 N.3     1  UNL1       -0.2738
     17 C         137.0608  143.0823  155.5272 C.3     1  UNL1        0.0721
     18 C         136.1227  142.2726  154.6820 C.3     1  UNL1        0.0188
     19 C         135.8799  140.9671  155.3796 C.3     1  UNL1        0.0188
     20 C         136.6679  140.9700  156.6559 C.3     1  UNL1        0.0721
     21 C         141.0502  140.8920  165.3828 C.3     1  UNL1        0.0549
     22 C         140.6375  140.6178  166.7987 C.3     1  UNL1        0.1295
     23 C         139.3681  139.8691  167.0783 C.2     1  UNL1        0.0853
     24 N         138.9555  139.5950  168.4941 N.am    1  UNL1       -0.1757
     25 C         139.8123  140.0695  169.6303 C.2     1  UNL1        0.2847
     26 O         139.3996  139.7952  171.0461 O.2     1  UNL1       -0.2664
     27 C         141.0816  140.8181  169.3506 C.ar    1  UNL1        0.1177
     28 C         142.1215  141.4050  170.2584 C.ar    1  UNL1        0.0356
     29 C         143.1769  142.0419  169.4037 C.ar    1  UNL1        0.0859
     30 CL        144.4044  142.7482  169.8982 Cl      1  UNL1       -0.0798
     31 C         142.7892  141.8487  167.9676 C.ar    1  UNL1        0.1299
     32 CL        143.5609  142.3276  166.7739 Cl      1  UNL1       -0.0622
     33 N         141.4942  141.0923  167.9348 N.ar    1  UNL1       -0.3105
@<TRIPOS>BOND
     1     8     9    2
     2     9     1    1
     3     1     2   ar
     4     2     3   ar
     5     3    21    1
     6    21    22    1
     7    22    23    1
     8    23    24    2
     9    24    25    1
    10    25    26    2
    11    25    27    1
    12    27    28   ar
    13    28    29   ar
    14    29    30    1
    15    29    31   ar
    16    31    32    1
    17    31    33   ar
    18     3     4   ar
    19     4     5   ar
    20     5     6   ar
    21     6     7    1
    22     9    10   am
    23    10    11    1
    24    11    12    1
    25    12    13    1
    26    13    16    1
    27    16    17    1
    28    17    18    1
    29    18    19    1
    30    19    20    1
    31    13    14    1
    32    14    15    1
    33     6     1   ar
    34    15    10    1
    35    33    22    1
    36    20    16    1
    37    33    27   ar
@<TRIPOS>MOLECULE
*****
 33 37 0 0 0
SMALL
GASTEIGER

@<TRIPOS>ATOM
      1 C         139.8702  138.9195  164.5062 C.ar    1  UNL1        0.0807
      2 C         140.6243  140.1508  164.9128 C.ar    1  UNL1        0.0026
      3 C         140.4260  140.7344  166.2803 C.ar    1  UNL1       -0.0196
      4 C         139.4736  140.0868  167.2412 C.ar    1  UNL1       -0.0019
      5 C         138.7195  138.8555  166.8347 C.ar    1  UNL1        0.0295
      6 C         138.9178  138.2719  165.4673 C.ar    1  UNL1        0.1444
      7 F         138.1637  137.0406  165.0608 F       1  UNL1       -0.2040
      8 O         140.7762  137.0230  162.9791 O.2     1  UNL1       -0.2698
      9 C         140.0685  138.3358  163.1388 C.2     1  UNL1        0.2512
     10 N         139.5591  139.0650  161.9310 N.am    1  UNL1       -0.2759
     11 C         138.8514  140.3779  162.0907 C.3     1  UNL1        0.0951
     12 C         138.3419  141.1071  160.8829 C.3     1  UNL1        0.0375
     13 C         138.5402  140.5234  159.5154 C.3     1  UNL1        0.0609
     14 C         139.2479  139.2106  159.3557 C.3     1  UNL1        0.0375
     15 C         139.7574  138.4814  160.5635 C.3     1  UNL1        0.0951
     16 N         138.0308  141.2526  158.3076 N.3     1  UNL1       -0.2738
     17 C         137.0638  140.7140  157.2953 C.3     1  UNL1        0.0721
     18 C         136.8343  141.7769  156.2621 C.3     1  UNL1        0.0188
     19 C         137.6594  142.9725  156.6359 C.3     1  UNL1        0.0188
     20 C         138.3989  142.6484  157.9000 C.3     1  UNL1        0.0721
     21 C         141.1801  141.9657  166.6868 C.3     1  UNL1        0.0549
     22 C         141.9926  142.7163  165.6736 C.3     1  UNL1        0.1295
     23 C         143.4903  142.6435  165.7103 C.2     1  UNL1        0.0853
     24 N         144.3027  143.3941  164.6970 N.am    1  UNL1       -0.1757
     25 C         143.6173  144.2175  163.6472 C.2     1  UNL1        0.2847
     26 O         144.4298  144.9681  162.6339 O.2     1  UNL1       -0.2664
     27 C         142.1196  144.2903  163.6105 C.ar    1  UNL1        0.1177
     28 C         141.1718  145.0144  162.7008 C.ar    1  UNL1        0.0356
     29 C         139.7737  144.7113  163.1518 C.ar    1  UNL1        0.0859
     30 CL        138.5132  145.2288  162.5244 Cl      1  UNL1       -0.0798
     31 C         139.8573  143.7999  164.3402 C.ar    1  UNL1        0.1299
     32 CL        138.6952  143.2459  165.1100 Cl      1  UNL1       -0.0622
     33 N         141.3072  143.5397  164.6237 N.ar    1  UNL1       -0.3105
@<TRIPOS>BOND
     1     8     9    2
     2     9     1    1
     3     1     2   ar
     4     2     3   ar
     5     3    21    1
     6    21    22    1
     7    22    23    1
     8    23    24    2
     9    24    25    1
    10    25    26    2
    11    25    27    1
    12    27    28   ar
    13    28    29   ar
    14    29    30    1
    15    29    31   ar
    16    31    32    1
    17    31    33   ar
    18     3     4   ar
    19     4     5   ar
    20     5     6   ar
    21     6     7    1
    22     9    10   am
    23    10    11    1
    24    11    12    1
    25    12    13    1
    26    13    16    1
    27    16    17    1
    28    17    18    1
    29    18    19    1
    30    19    20    1
    31    13    14    1
    32    14    15    1
    33     6     1   ar
    34    15    10    1
    35    33    22    1
    36    20    16    1
    37    33    27   ar
@<TRIPOS>MOLECULE
*****
 33 37 0 0 0
SMALL
GASTEIGER

@<TRIPOS>ATOM
      1 C         139.6662  138.8645  162.3507 C.ar    1  UNL1        0.0807
      2 C         140.0435  140.1934  161.7659 C.ar    1  UNL1        0.0026
      3 C         139.0870  140.9140  160.8625 C.ar    1  UNL1       -0.0196
      4 C         137.7534  140.3058  160.5440 C.ar    1  UNL1       -0.0019
      5 C         137.3762  138.9769  161.1288 C.ar    1  UNL1        0.0295
      6 C         138.3325  138.2563  162.0321 C.ar    1  UNL1        0.1444
      7 F         137.9553  136.9275  162.6169 F       1  UNL1       -0.2040
      8 O         141.0639  136.7498  162.9199 O.2     1  UNL1       -0.2698
      9 C         140.6226  138.1439  163.2540 C.2     1  UNL1        0.2512
     10 N         141.1377  138.8175  164.4913 N.am    1  UNL1       -0.2759
     11 C         140.6964  140.2116  164.8254 C.3     1  UNL1        0.0951
     12 C         141.2115  140.8851  166.0627 C.3     1  UNL1        0.0375
     13 C         142.1679  140.1645  166.9661 C.3     1  UNL1        0.0609
     14 C         142.6092  138.7704  166.6320 C.3     1  UNL1        0.0375
     15 C         142.0941  138.0969  165.3946 C.3     1  UNL1        0.0951
     16 N         142.6829  140.8380  168.2034 N.3     1  UNL1       -0.2738
     17 C         142.6915  140.2556  169.5857 C.3     1  UNL1        0.0721
     18 C         143.2937  141.2699  170.5124 C.3     1  UNL1        0.0188
     19 C         143.6574  142.4791  169.7027 C.3     1  UNL1        0.0188
     20 C         143.2799  142.2122  168.2758 C.3     1  UNL1        0.0721
     21 C         139.4642  142.2428  160.2777 C.3     1  UNL1        0.0549
     22 C         140.5938  143.0305  160.8725 C.3     1  UNL1        0.1295
     23 C         141.9060  143.1215  160.1516 C.2     1  UNL1        0.0853
     24 N         143.0354  143.9092  160.7464 N.am    1  UNL1       -0.1757
     25 C         142.8527  144.6059  162.0622 C.2     1  UNL1        0.2847
     26 O         143.9822  145.3936  162.6570 O.2     1  UNL1       -0.2664
     27 C         141.5405  144.5148  162.7831 C.ar    1  UNL1        0.1177
     28 C         141.0686  145.0908  164.0853 C.ar    1  UNL1        0.0356
     29 C         139.6475  144.6590  164.2953 C.ar    1  UNL1        0.0859
     30 CL        138.7844  145.0087  165.4712 Cl      1  UNL1       -0.0798
     31 C         139.2411  143.8162  163.1229 C.ar    1  UNL1        0.1299
     32 CL        137.9002  143.1751  162.9205 Cl      1  UNL1       -0.0622
     33 N         140.4110  143.7271  162.1883 N.ar    1  UNL1       -0.3105
@<TRIPOS>BOND
     1     8     9    2
     2     9     1    1
     3     1     2   ar
     4     2     3   ar
     5     3    21    1
     6    21    22    1
     7    22    23    1
     8    23    24    2
     9    24    25    1
    10    25    26    2
    11    25    27    1
    12    27    28   ar
    13    28    29   ar
    14    29    30    1
    15    29    31   ar
    16    31    32    1
    17    31    33   ar
    18     3     4   ar
    19     4     5   ar
    20     5     6   ar
    21     6     7    1
    22     9    10   am
    23    10    11    1
    24    11    12    1
    25    12    13    1
    26    13    16    1
    27    16    17    1
    28    17    18    1
    29    18    19    1
    30    19    20    1
    31    13    14    1
    32    14    15    1
    33     6     1   ar
    34    15    10    1
    35    33    22    1
    36    20    16    1
    37    33    27   ar
@<TRIPOS>MOLECULE
*****
 33 37 0 0 0
SMALL
GASTEIGER

@<TRIPOS>ATOM
      1 C         140.1076  138.8926  162.6905 C.ar    1  UNL1        0.0807
      2 C         139.5741  140.2213  163.1376 C.ar    1  UNL1        0.0026
      3 C         139.5003  140.5463  164.6001 C.ar    1  UNL1       -0.0196
      4 C         139.9601  139.5426  165.6156 C.ar    1  UNL1       -0.0019
      5 C         140.4937  138.2139  165.1685 C.ar    1  UNL1        0.0295
      6 C         140.5674  137.8889  163.7061 C.ar    1  UNL1        0.1444
      7 F         141.1010  136.5602  163.2590 F       1  UNL1       -0.2040
      8 O         139.1804  137.6331  160.6161 O.2     1  UNL1       -0.2698
      9 C         140.1814  138.5676  161.2281 C.2     1  UNL1        0.2512
     10 N         141.2562  139.1770  160.3776 N.am    1  UNL1       -0.2759
     11 C         142.2573  140.1115  160.9896 C.3     1  UNL1        0.0951
     12 C         143.3321  140.7210  160.1391 C.3     1  UNL1        0.0375
     13 C         143.4059  140.3959  158.6766 C.3     1  UNL1        0.0609
     14 C         142.4048  139.4615  158.0646 C.3     1  UNL1        0.0375
     15 C         141.3300  138.8520  158.9151 C.3     1  UNL1        0.0951
     16 N         144.4807  141.0054  157.8262 N.3     1  UNL1       -0.2738
     17 C         145.0003  140.4531  156.5320 C.3     1  UNL1        0.0721
     18 C         146.0654  141.3805  156.0265 C.3     1  UNL1        0.0188
     19 C         146.2041  142.5060  157.0083 C.3     1  UNL1        0.0188
     20 C         145.2247  142.2742  158.1205 C.3     1  UNL1        0.0721
     21 C         138.9668  141.8750  165.0472 C.3     1  UNL1        0.0549
     22 C         139.0313  143.0574  164.1263 C.3     1  UNL1        0.1295
     23 C         137.8034  143.5006  163.3876 C.2     1  UNL1        0.0853
     24 N         137.8679  144.6829  162.4668 N.am    1  UNL1       -0.1757
     25 C         139.1604  145.4221  162.2848 C.2     1  UNL1        0.2847
     26 O         139.2249  146.6045  161.3639 O.2     1  UNL1       -0.2664
     27 C         140.3883  144.9789  163.0235 C.ar    1  UNL1        0.1177
     28 C         141.7922  145.5068  163.0446 C.ar    1  UNL1        0.0356
     29 C         142.5953  144.6507  163.9785 C.ar    1  UNL1        0.0859
     30 CL        144.0505  144.8216  164.2999 Cl      1  UNL1       -0.0798
     31 C         141.6878  143.5937  164.5345 C.ar    1  UNL1        0.1299
     32 CL        142.0761  142.5220  165.5096 Cl      1  UNL1       -0.0622
     33 N         140.3238  143.7966  163.9443 N.ar    1  UNL1       -0.3105
@<TRIPOS>BOND
     1     8     9    2
     2     9     1    1
     3     1     2   ar
     4     2     3   ar
     5     3    21    1
     6    21    22    1
     7    22    23    1
     8    23    24    2
     9    24    25    1
    10    25    26    2
    11    25    27    1
    12    27    28   ar
    13    28    29   ar
    14    29    30    1
    15    29    31   ar
    16    31    32    1
    17    31    33   ar
    18     3     4   ar
    19     4     5   ar
    20     5     6   ar
    21     6     7    1
    22     9    10   am
    23    10    11    1
    24    11    12    1
    25    12    13    1
    26    13    16    1
    27    16    17    1
    28    17    18    1
    29    18    19    1
    30    19    20    1
    31    13    14    1
    32    14    15    1
    33     6     1   ar
    34    15    10    1
    35    33    22    1
    36    20    16    1
    37    33    27   ar
@<TRIPOS>MOLECULE
*****
 33 37 0 0 0
SMALL
GASTEIGER

@<TRIPOS>ATOM
      1 C         140.6748  139.0350  162.3888 C.ar    1  UNL1        0.0807
      2 C         140.8988  140.3089  161.6293 C.ar    1  UNL1        0.0026
      3 C         142.0127  140.3995  160.6287 C.ar    1  UNL1       -0.0196
      4 C         142.9024  139.2162  160.3876 C.ar    1  UNL1       -0.0019
      5 C         142.6784  137.9423  161.1472 C.ar    1  UNL1        0.0295
      6 C         141.5646  137.8516  162.1478 C.ar    1  UNL1        0.1444
      7 F         141.3405  136.5777  162.9073 F       1  UNL1       -0.2040
      8 O         138.2236  138.4053  162.9762 O.2     1  UNL1       -0.2698
      9 C         139.5610  138.9444  163.3894 C.2     1  UNL1        0.2512
     10 N         139.7846  139.3928  164.8033 N.am    1  UNL1       -0.2759
     11 C         141.1219  139.9319  165.2165 C.3     1  UNL1        0.0951
     12 C         141.3455  140.3804  166.6303 C.3     1  UNL1        0.0375
     13 C         140.2317  140.2898  167.6309 C.3     1  UNL1        0.0609
     14 C         138.8944  139.7507  167.2177 C.3     1  UNL1        0.0375
     15 C         138.6708  139.3022  165.8038 C.3     1  UNL1        0.0951
     16 N         140.4553  140.7383  169.0447 N.3     1  UNL1       -0.2738
     17 C         141.0181  139.9029  170.1562 C.3     1  UNL1        0.0721
     18 C         141.0660  140.7492  171.3937 C.3     1  UNL1        0.0188
     19 C         140.5327  142.1076  171.0471 C.3     1  UNL1        0.0188
     20 C         140.1553  142.1009  169.5954 C.3     1  UNL1        0.0721
     21 C         142.2368  141.6734  159.8691 C.3     1  UNL1        0.0549
     22 C         141.6003  142.9482  160.3382 C.3     1  UNL1        0.1295
     23 C         140.4627  143.5471  159.5655 C.2     1  UNL1        0.0853
     24 N         139.8263  144.8218  160.0346 N.am    1  UNL1       -0.1757
     25 C         140.3275  145.4975  161.2765 C.2     1  UNL1        0.2847
     26 O         139.6910  146.7723  161.7456 O.2     1  UNL1       -0.2664
     27 C         141.4650  144.8986  162.0493 C.ar    1  UNL1        0.1177
     28 C         142.1681  145.3346  163.3004 C.ar    1  UNL1        0.0356
     29 C         143.2391  144.3293  163.6046 C.ar    1  UNL1        0.0859
     30 CL        144.1853  144.3737  164.7678 Cl      1  UNL1       -0.0798
     31 C         143.1979  143.2720  162.5414 C.ar    1  UNL1        0.1299
     32 CL        144.0956  142.0734  162.4546 Cl      1  UNL1       -0.0622
     33 N         142.1014  143.6239  161.5801 N.ar    1  UNL1       -0.3105
@<TRIPOS>BOND
     1     8     9    2
     2     9     1    1
     3     1     2   ar
     4     2     3   ar
     5     3    21    1
     6    21    22    1
     7    22    23    1
     8    23    24    2
     9    24    25    1
    10    25    26    2
    11    25    27    1
    12    27    28   ar
    13    28    29   ar
    14    29    30    1
    15    29    31   ar
    16    31    32    1
    17    31    33   ar
    18     3     4   ar
    19     4     5   ar
    20     5     6   ar
    21     6     7    1
    22     9    10   am
    23    10    11    1
    24    11    12    1
    25    12    13    1
    26    13    16    1
    27    16    17    1
    28    17    18    1
    29    18    19    1
    30    19    20    1
    31    13    14    1
    32    14    15    1
    33     6     1   ar
    34    15    10    1
    35    33    22    1
    36    20    16    1
    37    33    27   ar
@<TRIPOS>MOLECULE
*****
 33 37 0 0 0
SMALL
GASTEIGER

@<TRIPOS>ATOM
      1 C         141.1091  138.8820  163.3806 C.ar    1  UNL1        0.0807
      2 C         140.6429  140.2427  163.8063 C.ar    1  UNL1        0.0026
      3 C         139.5888  140.3770  164.8651 C.ar    1  UNL1       -0.0196
      4 C         139.0010  139.1507  165.4980 C.ar    1  UNL1       -0.0019
      5 C         139.4672  137.7901  165.0722 C.ar    1  UNL1        0.0295
      6 C         140.5212  137.6557  164.0136 C.ar    1  UNL1        0.1444
      7 F         140.9875  136.2950  163.5878 F       1  UNL1       -0.2040
      8 O         143.6142  138.7666  162.7016 O.2     1  UNL1       -0.2698
      9 C         142.1632  138.7476  162.3219 C.2     1  UNL1        0.2512
     10 N         141.7663  138.5943  160.8835 N.am    1  UNL1       -0.2759
     11 C         140.3153  138.5754  160.5038 C.3     1  UNL1        0.0951
     12 C         139.9184  138.4221  159.0654 C.3     1  UNL1        0.0375
     13 C         140.9724  138.2877  158.0067 C.3     1  UNL1        0.0609
     14 C         142.4234  138.3066  158.3865 C.3     1  UNL1        0.0375
     15 C         142.8203  138.4599  159.8248 C.3     1  UNL1        0.0951
     16 N         140.5755  138.1344  156.5684 N.3     1  UNL1       -0.2738
     17 C         139.4289  137.3163  156.0525 C.3     1  UNL1        0.0721
     18 C         139.4002  137.4486  154.5586 C.3     1  UNL1        0.0188
     19 C         140.5292  138.3483  154.1512 C.3     1  UNL1        0.0188
     20 C         141.2555  138.7721  155.3933 C.3     1  UNL1        0.0721
     21 C         139.1226  141.7376  165.2908 C.3     1  UNL1        0.0549
     22 C         139.1199  142.8710  164.3082 C.3     1  UNL1        0.1295
     23 C         137.8781  143.1835  163.5271 C.2     1  UNL1        0.0853
     24 N         137.8754  144.3168  162.5445 N.am    1  UNL1       -0.1757
     25 C         139.1146  145.1377  162.3430 C.2     1  UNL1        0.2847
     26 O         139.1120  146.2710  161.3603 O.2     1  UNL1       -0.2664
     27 C         140.3565  144.8252  163.1241 C.ar    1  UNL1        0.1177
     28 C         141.7180  145.4545  163.1387 C.ar    1  UNL1        0.0356
     29 C         142.5621  144.7101  164.1304 C.ar    1  UNL1        0.0859
     30 CL        143.9946  145.0036  164.4650 Cl      1  UNL1       -0.0798
     31 C         141.7223  143.6207  164.7286 C.ar    1  UNL1        0.1299
     32 CL        142.1674  142.6335  165.7665 Cl      1  UNL1       -0.0622
     33 N         140.3591  143.6919  164.1067 N.ar    1  UNL1       -0.3105
@<TRIPOS>BOND
     1     8     9    2
     2     9     1    1
     3     1     2   ar
     4     2     3   ar
     5     3    21    1
     6    21    22    1
     7    22    23    1
     8    23    24    2
     9    24    25    1
    10    25    26    2
    11    25    27    1
    12    27    28   ar
    13    28    29   ar
    14    29    30    1
    15    29    31   ar
    16    31    32    1
    17    31    33   ar
    18     3     4   ar
    19     4     5   ar
    20     5     6   ar
    21     6     7    1
    22     9    10   am
    23    10    11    1
    24    11    12    1
    25    12    13    1
    26    13    16    1
    27    16    17    1
    28    17    18    1
    29    18    19    1
    30    19    20    1
    31    13    14    1
    32    14    15    1
    33     6     1   ar
    34    15    10    1
    35    33    22    1
    36    20    16    1
    37    33    27   ar
@<TRIPOS>MOLECULE
*****
 33 37 0 0 0
SMALL
GASTEIGER

@<TRIPOS>ATOM
      1 C         140.2120  138.8934  163.0110 C.ar    1  UNL1        0.0807
      2 C         141.0173  139.9329  163.7327 C.ar    1  UNL1        0.0026
      3 C         140.7231  140.2451  165.1701 C.ar    1  UNL1       -0.0196
      4 C         139.6236  139.5177  165.8857 C.ar    1  UNL1       -0.0019
      5 C         138.8183  138.4783  165.1639 C.ar    1  UNL1        0.0295
      6 C         139.1125  138.1661  163.7266 C.ar    1  UNL1        0.1444
      7 F         138.3071  137.1266  163.0048 F       1  UNL1       -0.2040
      8 O         141.5402  137.5517  161.2263 O.2     1  UNL1       -0.2698
      9 C         140.5062  138.5813  161.5736 C.2     1  UNL1        0.2512
     10 N         139.7664  139.2987  160.4837 N.am    1  UNL1       -0.2759
     11 C         138.7323  140.3282  160.8311 C.3     1  UNL1        0.0951
     12 C         137.9925  141.0456  159.7411 C.3     1  UNL1        0.0375
     13 C         138.2867  140.7335  158.3038 C.3     1  UNL1        0.0609
     14 C         139.3207  139.7039  157.9564 C.3     1  UNL1        0.0375
     15 C         140.0605  138.9865  159.0464 C.3     1  UNL1        0.0951
     16 N         137.5468  141.4509  157.2139 N.3     1  UNL1       -0.2738
     17 C         136.3974  140.9037  156.4205 C.3     1  UNL1        0.0721
     18 C         135.9667  141.9561  155.4422 C.3     1  UNL1        0.0188
     19 C         136.8500  143.1537  155.6310 C.3     1  UNL1        0.0188
     20 C         137.8265  142.8414  156.7259 C.3     1  UNL1        0.0721
     21 C         141.5284  141.2845  165.8919 C.3     1  UNL1        0.0549
     22 C         141.1914  141.6441  167.3087 C.3     1  UNL1        0.1295
     23 C         140.4172  142.8951  167.6012 C.2     1  UNL1        0.0853
     24 N         140.0803  143.2546  169.0179 N.am    1  UNL1       -0.1757
     25 C         140.5175  142.3631  170.1422 C.2     1  UNL1        0.2847
     26 O         140.1806  142.7227  171.5590 O.2     1  UNL1       -0.2664
     27 C         141.2917  141.1121  169.8497 C.ar    1  UNL1        0.1177
     28 C         141.8529  140.0468  170.7443 C.ar    1  UNL1        0.0356
     29 C         142.5366  139.0288  169.8804 C.ar    1  UNL1        0.0859
     30 CL        143.2361  137.7918  170.3607 Cl      1  UNL1       -0.0798
     31 C         142.3981  139.4650  168.4519 C.ar    1  UNL1        0.1299
     32 CL        142.9347  138.7409  167.2529 Cl      1  UNL1       -0.0622
     33 N         141.6287  140.7526  168.4330 N.ar    1  UNL1       -0.3105
@<TRIPOS>BOND
     1     8     9    2
     2     9     1    1
     3     1     2   ar
     4     2     3   ar
     5     3    21    1
     6    21    22    1
     7    22    23    1
     8    23    24    2
     9    24    25    1
    10    25    26    2
    11    25    27    1
    12    27    28   ar
    13    28    29   ar
    14    29    30    1
    15    29    31   ar
    16    31    32    1
    17    31    33   ar
    18     3     4   ar
    19     4     5   ar
    20     5     6   ar
    21     6     7    1
    22     9    10   am
    23    10    11    1
    24    11    12    1
    25    12    13    1
    26    13    16    1
    27    16    17    1
    28    17    18    1
    29    18    19    1
    30    19    20    1
    31    13    14    1
    32    14    15    1
    33     6     1   ar
    34    15    10    1
    35    33    22    1
    36    20    16    1
    37    33    27   ar
@<TRIPOS>MOLECULE
*****
 33 37 0 0 0
SMALL
GASTEIGER

@<TRIPOS>ATOM
      1 C         143.6783  141.8825  164.5120 C.ar    1  UNL1        0.0807
      2 C         142.4986  140.9789  164.7166 C.ar    1  UNL1        0.0026
      3 C         141.8109  140.9334  166.0490 C.ar    1  UNL1       -0.0196
      4 C         142.3029  141.7914  167.1767 C.ar    1  UNL1       -0.0019
      5 C         143.4826  142.6950  166.9721 C.ar    1  UNL1        0.0295
      6 C         144.1703  142.7405  165.6398 C.ar    1  UNL1        0.1444
      7 F         145.3500  143.6441  165.4352 F       1  UNL1       -0.2040
      8 O         145.7569  141.3856  163.0348 O.2     1  UNL1       -0.2698
      9 C         144.3660  141.9280  163.1798 C.2     1  UNL1        0.2512
     10 N         143.6628  142.5161  161.9925 N.am    1  UNL1       -0.2759
     11 C         142.2718  143.0585  162.1374 C.3     1  UNL1        0.0951
     12 C         141.5686  143.6465  160.9501 C.3     1  UNL1        0.0375
     13 C         142.2563  143.6921  159.6178 C.3     1  UNL1        0.0609
     14 C         143.6472  143.1496  159.4729 C.3     1  UNL1        0.0375
     15 C         144.3504  142.5616  160.6602 C.3     1  UNL1        0.0951
     16 N         141.5531  144.2801  158.4305 N.3     1  UNL1       -0.2738
     17 C         140.6452  143.5445  157.4900 C.3     1  UNL1        0.0721
     18 C         140.1653  144.5167  156.4535 C.3     1  UNL1        0.0188
     19 C         140.7766  145.8533  156.7534 C.3     1  UNL1        0.0188
     20 C         141.6343  145.7070  157.9753 C.3     1  UNL1        0.0721
     21 C         140.6312  140.0298  166.2536 C.3     1  UNL1        0.0549
     22 C         139.8222  139.5741  165.0754 C.3     1  UNL1        0.1295
     23 C         139.8098  138.1247  164.6896 C.2     1  UNL1        0.0853
     24 N         139.0009  137.6691  163.5115 N.am    1  UNL1       -0.1757
     25 C         138.2044  138.6629  162.7191 C.2     1  UNL1        0.2847
     26 O         137.3955  138.2072  161.5410 O.2     1  UNL1       -0.2664
     27 C         138.2168  140.1124  163.1049 C.ar    1  UNL1        0.1177
     28 C         137.5363  141.3132  162.5177 C.ar    1  UNL1        0.0356
     29 C         137.9247  142.5110  163.3328 C.ar    1  UNL1        0.0859
     30 CL        137.4719  143.9217  163.0981 Cl      1  UNL1       -0.0798
     31 C         138.8452  142.0505  164.4239 C.ar    1  UNL1        0.1299
     32 CL        139.4746  142.9197  165.4719 Cl      1  UNL1       -0.0622
     33 N         139.0257  140.5680  164.2831 N.ar    1  UNL1       -0.3105
@<TRIPOS>BOND
     1     8     9    2
     2     9     1    1
     3     1     2   ar
     4     2     3   ar
     5     3    21    1
     6    21    22    1
     7    22    23    1
     8    23    24    2
     9    24    25    1
    10    25    26    2
    11    25    27    1
    12    27    28   ar
    13    28    29   ar
    14    29    30    1
    15    29    31   ar
    16    31    32    1
    17    31    33   ar
    18     3     4   ar
    19     4     5   ar
    20     5     6   ar
    21     6     7    1
    22     9    10   am
    23    10    11    1
    24    11    12    1
    25    12    13    1
    26    13    16    1
    27    16    17    1
    28    17    18    1
    29    18    19    1
    30    19    20    1
    31    13    14    1
    32    14    15    1
    33     6     1   ar
    34    15    10    1
    35    33    22    1
    36    20    16    1
    37    33    27   ar
