@<TRIPOS>MOLECULE
*****
 32 35 0 0 0
SMALL
GASTEIGER

@<TRIPOS>ATOM
      1 C         141.8370  139.7471  165.3503 C.2     1  UNL1        0.2257
      2 O         143.0700  139.4402  166.1473 O.2     1  UNL1       -0.2749
      3 N         141.9412  140.5466  164.0854 N.am    1  UNL1       -0.2760
      4 C         140.7080  140.8535  163.2884 C.3     1  UNL1        0.1149
      5 C         140.8123  141.6531  162.0235 C.3     1  UNL1        0.1141
      6 N         142.1497  142.1457  161.5557 N.pl3   1  UNL1       -0.2847
      7 C         143.3827  141.8388  162.3528 C.3     1  UNL1        0.1141
      8 C         143.2785  141.0393  163.6176 C.3     1  UNL1        0.1149
      9 C         139.8542  139.8685  167.0248 C.3     1  UNL1        0.0851
     10 C         138.5169  139.3759  167.4926 C.3     1  UNL1        0.0096
     11 C         137.8249  138.2691  166.7536 C.3     1  UNL1        0.0005
     12 C         138.4703  137.6550  165.5468 C.3     1  UNL1        0.0005
     13 C         139.8076  138.1476  165.0790 C.3     1  UNL1        0.0096
     14 C         140.4996  139.2544  165.8181 C.3     1  UNL1        0.0853
     15 N         141.5258  140.6522  168.8529 N.am    1  UNL1       -0.2959
     16 C         140.5463  140.9754  167.7639 C.2     1  UNL1        0.2231
     17 O         140.2587  142.4053  167.4138 O.2     1  UNL1       -0.2751
     18 H         141.7145  139.7137  169.0826 H       1  UNL1        0.1502
     19 C         142.2179  141.7591  169.5919 C.3     1  UNL1        0.1364
     20 C         143.2257  142.8208  169.9191 C.3     1  UNL1        0.0353
     21 C         143.3675  142.0136  168.6627 C.3     1  UNL1        0.0353
     22 N         140.3990  142.0187  171.9635 N.1     1  UNL1       -0.1943
     23 C         141.3084  141.8888  170.7777 C.1     1  UNL1        0.0896
     24 C         142.2539  142.9453  160.2909 C.ar    1  UNL1        0.1631
     25 N         141.3064  144.0198  159.8464 N.ar    1  UNL1       -0.2201
     26 C         141.7908  144.5493  158.5292 C.ar    1  UNL1        0.1610
     27 C         143.0378  143.8021  158.1597 C.ar    1  UNL1        0.0612
     28 S         143.3240  142.8108  159.2484 S.2     1  UNL1       -0.0510
     29 C         141.1422  145.6354  157.7232 C.3     1  UNL1        0.4354
     30 F         140.4934  146.7214  156.9172 F       1  UNL1       -0.1644
     31 F         139.8286  144.9164  157.8117 F       1  UNL1       -0.1644
     32 F         142.4557  146.3543  157.6348 F       1  UNL1       -0.1644
@<TRIPOS>BOND
     1    22    23    3
     2    23    19    1
     3    19    15    1
     4    15    16   am
     5    16    17    2
     6     9    16    1
     7     9    10    1
     8    10    11    1
     9    11    12    1
    10    12    13    1
    11    13    14    1
    12    14     1    1
    13     1     2    2
    14     1     3   am
    15     3     4    1
    16     4     5    1
    17     5     6    1
    18     6    24    1
    19    24    25   ar
    20    25    26   ar
    21    26    29    1
    22    29    30    1
    23    29    31    1
    24    29    32    1
    25    26    27   ar
    26    27    28   ar
    27     6     7    1
    28     7     8    1
    29    19    20    1
    30    20    21    1
    31    21    19    1
    32    14     9    1
    33     8     3    1
    34    28    24   ar
    35    15    18    1
@<TRIPOS>MOLECULE
*****
 32 35 0 0 0
SMALL
GASTEIGER

@<TRIPOS>ATOM
      1 C         139.9919  138.0989  163.0823 C.2     1  UNL1        0.2257
      2 O         140.8786  136.9027  162.9016 O.2     1  UNL1       -0.2749
      3 N         139.4286  138.8028  161.8835 N.am    1  UNL1       -0.2760
      4 C         138.5418  139.9991  162.0642 C.3     1  UNL1        0.1149
      5 C         137.9785  140.7031  160.8654 C.3     1  UNL1        0.1141
      6 N         138.3019  140.2107  159.4858 N.pl3   1  UNL1       -0.2847
      7 C         139.1887  139.0145  159.3052 C.3     1  UNL1        0.1141
      8 C         139.7520  138.3105  160.5040 C.3     1  UNL1        0.1149
      9 C         140.4868  139.6869  165.0781 C.3     1  UNL1        0.0851
     10 C         140.1634  140.1793  166.4576 C.3     1  UNL1        0.0096
     11 C         139.0216  139.5760  167.2207 C.3     1  UNL1        0.0005
     12 C         138.2033  138.4803  166.6044 C.3     1  UNL1        0.0005
     13 C         138.5267  137.9880  165.2249 C.3     1  UNL1        0.0096
     14 C         139.6684  138.5913  164.4618 C.3     1  UNL1        0.0853
     15 N         142.9898  139.6639  164.3823 N.am    1  UNL1       -0.2959
     16 C         141.6286  140.2902  164.3149 C.2     1  UNL1        0.2231
     17 O         141.4090  141.5199  163.4844 O.2     1  UNL1       -0.2751
     18 H         143.1339  138.8568  164.9274 H       1  UNL1        0.1502
     19 C         144.1316  140.2672  163.6191 C.3     1  UNL1        0.1364
     20 C         145.2858  141.1651  163.2852 C.3     1  UNL1        0.0353
     21 C         144.5640  141.3253  164.5904 C.3     1  UNL1        0.0353
     22 N         144.0597  138.5698  161.1464 N.1     1  UNL1       -0.1943
     23 C         144.0957  139.4186  162.3827 C.1     1  UNL1        0.0896
     24 C         137.7386  140.9147  158.2870 C.ar    1  UNL1        0.1631
     25 N         136.6635  140.3911  157.3816 N.ar    1  UNL1       -0.2201
     26 C         136.4119  141.4186  156.3181 C.ar    1  UNL1        0.1610
     27 C         137.3316  142.5773  156.5663 C.ar    1  UNL1        0.0612
     28 S         138.1516  142.2658  157.7832 S.2     1  UNL1       -0.0510
     29 C         135.4156  141.3070  155.2024 C.3     1  UNL1        0.4354
     30 F         134.4193  141.1954  154.0867 F       1  UNL1       -0.1644
     31 F         135.0334  139.9376  155.6807 F       1  UNL1       -0.1644
     32 F         135.7978  142.6764  154.7241 F       1  UNL1       -0.1644
@<TRIPOS>BOND
     1    22    23    3
     2    23    19    1
     3    19    15    1
     4    15    16   am
     5    16    17    2
     6     9    16    1
     7     9    10    1
     8    10    11    1
     9    11    12    1
    10    12    13    1
    11    13    14    1
    12    14     1    1
    13     1     2    2
    14     1     3   am
    15     3     4    1
    16     4     5    1
    17     5     6    1
    18     6    24    1
    19    24    25   ar
    20    25    26   ar
    21    26    29    1
    22    29    30    1
    23    29    31    1
    24    29    32    1
    25    26    27   ar
    26    27    28   ar
    27     6     7    1
    28     7     8    1
    29    19    20    1
    30    20    21    1
    31    21    19    1
    32    14     9    1
    33     8     3    1
    34    28    24   ar
    35    15    18    1
@<TRIPOS>MOLECULE
*****
 32 35 0 0 0
SMALL
GASTEIGER

@<TRIPOS>ATOM
      1 C         139.8365  142.9874  164.6901 C.2     1  UNL1        0.2257
      2 O         139.7981  143.9228  165.8621 O.2     1  UNL1       -0.2749
      3 N         140.0363  143.5279  163.3053 N.am    1  UNL1       -0.2760
      4 C         140.0747  142.5924  162.1333 C.3     1  UNL1        0.1149
      5 C         140.2745  143.1330  160.7484 C.3     1  UNL1        0.1141
      6 N         140.4359  144.6091  160.5355 N.pl3   1  UNL1       -0.2847
      7 C         140.3975  145.5445  161.7075 C.3     1  UNL1        0.1141
      8 C         140.1977  145.0039  163.0924 C.3     1  UNL1        0.1149
      9 C         140.8850  140.6281  164.9810 C.3     1  UNL1        0.0851
     10 C         140.7236  139.1521  165.1939 C.3     1  UNL1        0.0096
     11 C         139.3524  138.5593  165.3288 C.3     1  UNL1        0.0005
     12 C         138.1425  139.4425  165.2508 C.3     1  UNL1        0.0005
     13 C         138.3038  140.9185  165.0380 C.3     1  UNL1        0.0096
     14 C         139.6751  141.5113  164.9030 C.3     1  UNL1        0.0853
     15 N         143.0391  141.0203  163.5824 N.am    1  UNL1       -0.2959
     16 C         142.2563  141.2209  164.8461 C.2     1  UNL1        0.2231
     17 O         142.8447  142.0144  165.9749 O.2     1  UNL1       -0.2751
     18 H         142.6529  140.4995  162.8415 H       1  UNL1        0.1502
     19 C         144.4104  141.6132  163.4475 C.3     1  UNL1        0.1364
     20 C         145.9008  141.7538  163.5420 C.3     1  UNL1        0.0353
     21 C         145.2297  140.5168  164.0613 C.3     1  UNL1        0.0353
     22 N         143.7241  144.2176  162.1260 N.1     1  UNL1       -0.1943
     23 C         144.0672  142.9154  162.7868 C.1     1  UNL1        0.0896
     24 C         140.6357  145.1497  159.1507 C.ar    1  UNL1        0.1631
     25 N         139.6416  145.9536  158.3661 N.ar    1  UNL1       -0.2201
     26 C         140.2562  146.2820  157.0377 C.ar    1  UNL1        0.1610
     27 C         141.6300  145.6811  157.0014 C.ar    1  UNL1        0.0612
     28 S         141.8646  144.9813  158.3072 S.2     1  UNL1       -0.0510
     29 C         139.6102  147.0725  155.9387 C.3     1  UNL1        0.4354
     30 F         138.9643  147.8630  154.8397 F       1  UNL1       -0.1644
     31 F         140.3907  146.2949  154.9207 F       1  UNL1       -0.1644
     32 F         138.8298  147.8501  156.9568 F       1  UNL1       -0.1644
@<TRIPOS>BOND
     1    22    23    3
     2    23    19    1
     3    19    15    1
     4    15    16   am
     5    16    17    2
     6     9    16    1
     7     9    10    1
     8    10    11    1
     9    11    12    1
    10    12    13    1
    11    13    14    1
    12    14     1    1
    13     1     2    2
    14     1     3   am
    15     3     4    1
    16     4     5    1
    17     5     6    1
    18     6    24    1
    19    24    25   ar
    20    25    26   ar
    21    26    29    1
    22    29    30    1
    23    29    31    1
    24    29    32    1
    25    26    27   ar
    26    27    28   ar
    27     6     7    1
    28     7     8    1
    29    19    20    1
    30    20    21    1
    31    21    19    1
    32    14     9    1
    33     8     3    1
    34    28    24   ar
    35    15    18    1
@<TRIPOS>MOLECULE
*****
 32 35 0 0 0
SMALL
GASTEIGER

@<TRIPOS>ATOM
      1 C         142.2369  139.2861  165.5532 C.2     1  UNL1        0.2257
      2 O         143.2715  139.1388  166.6292 O.2     1  UNL1       -0.2749
      3 N         142.6418  139.7320  164.1795 N.am    1  UNL1       -0.2760
      4 C         141.6071  139.8793  163.1034 C.3     1  UNL1        0.1149
      5 C         142.0119  140.3252  161.7297 C.3     1  UNL1        0.1141
      6 N         143.4515  140.6238  161.4319 N.pl3   1  UNL1       -0.2847
      7 C         144.4861  140.4765  162.5079 C.3     1  UNL1        0.1141
      8 C         144.0813  140.0306  163.8817 C.3     1  UNL1        0.1149
      9 C         140.0607  139.7956  166.8778 C.3     1  UNL1        0.0851
     10 C         138.6212  139.4970  167.1756 C.3     1  UNL1        0.0096
     11 C         137.9184  138.3905  166.4465 C.3     1  UNL1        0.0005
     12 C         138.6551  137.5824  165.4197 C.3     1  UNL1        0.0005
     13 C         140.0946  137.8810  165.1219 C.3     1  UNL1        0.0096
     14 C         140.7974  138.9875  165.8510 C.3     1  UNL1        0.0853
     15 N         141.5429  140.6028  168.8530 N.am    1  UNL1       -0.2959
     16 C         140.7635  140.9022  167.6069 C.2     1  UNL1        0.2231
     17 O         140.6869  142.3081  167.0897 O.2     1  UNL1       -0.2751
     18 H         141.5931  139.6800  169.1924 H       1  UNL1        0.1502
     19 C         142.2457  141.7094  169.5821 C.3     1  UNL1        0.1364
     20 C         143.2737  142.7517  169.9093 C.3     1  UNL1        0.0353
     21 C         143.4261  141.9084  168.6781 C.3     1  UNL1        0.0353
     22 N         140.3731  142.0799  171.8964 N.1     1  UNL1       -0.1943
     23 C         141.3094  141.8947  170.7392 C.1     1  UNL1        0.0896
     24 C         143.8564  141.0697  160.0581 C.ar    1  UNL1        0.1631
     25 N         144.1908  140.1732  158.9030 N.ar    1  UNL1       -0.2201
     26 C         144.5390  141.0398  157.7292 C.ar    1  UNL1        0.1610
     27 C         144.4198  142.4719  158.1589 C.ar    1  UNL1        0.0612
     28 S         143.9979  142.4904  159.5983 S.2     1  UNL1       -0.0510
     29 C         144.9366  140.5587  156.3652 C.3     1  UNL1        0.4354
     30 F         145.3342  140.0776  155.0013 F       1  UNL1       -0.1644
     31 F         146.2574  141.2559  156.5044 F       1  UNL1       -0.1644
     32 F         143.6158  139.8615  156.2261 F       1  UNL1       -0.1644
@<TRIPOS>BOND
     1    22    23    3
     2    23    19    1
     3    19    15    1
     4    15    16   am
     5    16    17    2
     6     9    16    1
     7     9    10    1
     8    10    11    1
     9    11    12    1
    10    12    13    1
    11    13    14    1
    12    14     1    1
    13     1     2    2
    14     1     3   am
    15     3     4    1
    16     4     5    1
    17     5     6    1
    18     6    24    1
    19    24    25   ar
    20    25    26   ar
    21    26    29    1
    22    29    30    1
    23    29    31    1
    24    29    32    1
    25    26    27   ar
    26    27    28   ar
    27     6     7    1
    28     7     8    1
    29    19    20    1
    30    20    21    1
    31    21    19    1
    32    14     9    1
    33     8     3    1
    34    28    24   ar
    35    15    18    1
@<TRIPOS>MOLECULE
*****
 32 35 0 0 0
SMALL
GASTEIGER

@<TRIPOS>ATOM
      1 C         143.9849  140.7931  163.2654 C.2     1  UNL1        0.2257
      2 O         144.9229  140.1735  164.2585 O.2     1  UNL1       -0.2749
      3 N         143.5806  140.0304  162.0386 N.am    1  UNL1       -0.2760
      4 C         142.6425  140.6501  161.0455 C.3     1  UNL1        0.1149
      5 C         142.2382  139.8875  159.8188 C.3     1  UNL1        0.1141
      6 N         142.7720  138.5052  159.5851 N.pl3   1  UNL1       -0.2847
      7 C         143.7100  137.8856  160.5782 C.3     1  UNL1        0.1141
      8 C         144.1143  138.6483  161.8049 C.3     1  UNL1        0.1149
      9 C         142.1505  142.3648  164.2220 C.3     1  UNL1        0.0851
     10 C         141.6167  143.7469  164.4557 C.3     1  UNL1        0.0096
     11 C         142.3835  144.9397  163.9665 C.3     1  UNL1        0.0005
     12 C         143.6841  144.7502  163.2435 C.3     1  UNL1        0.0005
     13 C         144.2179  143.3680  163.0098 C.3     1  UNL1        0.0096
     14 C         143.4511  142.1753  163.4991 C.3     1  UNL1        0.0853
     15 N         140.2472  140.6261  163.8987 N.am    1  UNL1       -0.2959
     16 C         141.3837  141.1720  164.7113 C.2     1  UNL1        0.2231
     17 O         141.7535  140.5251  166.0132 O.2     1  UNL1       -0.2751
     18 H         140.0046  141.0506  163.0442 H       1  UNL1        0.1502
     19 C         139.4804  139.4333  164.3879 C.3     1  UNL1        0.1364
     20 C         138.4750  138.6177  165.1456 C.3     1  UNL1        0.0353
     21 C         138.5270  140.1054  165.3309 C.3     1  UNL1        0.0353
     22 N         140.8549  137.2607  162.8416 N.1     1  UNL1       -0.1943
     23 C         140.1676  138.3470  163.6148 C.1     1  UNL1        0.0896
     24 C         142.3677  137.7426  158.3583 C.ar    1  UNL1        0.1631
     25 N         143.1494  136.6398  157.7082 N.ar    1  UNL1       -0.2201
     26 C         142.3756  136.1645  156.5143 C.ar    1  UNL1        0.1610
     27 C         141.1155  136.9736  156.4266 C.ar    1  UNL1        0.0612
     28 S         141.1107  137.9489  157.5663 S.2     1  UNL1       -0.0510
     29 C         142.7891  135.0720  155.5734 C.3     1  UNL1        0.4354
     30 F         143.2026  133.9794  154.6326 F       1  UNL1       -0.1644
     31 F         141.4376  134.4371  155.7166 F       1  UNL1       -0.1644
     32 F         144.1406  135.7068  155.4303 F       1  UNL1       -0.1644
@<TRIPOS>BOND
     1    22    23    3
     2    23    19    1
     3    19    15    1
     4    15    16   am
     5    16    17    2
     6     9    16    1
     7     9    10    1
     8    10    11    1
     9    11    12    1
    10    12    13    1
    11    13    14    1
    12    14     1    1
    13     1     2    2
    14     1     3   am
    15     3     4    1
    16     4     5    1
    17     5     6    1
    18     6    24    1
    19    24    25   ar
    20    25    26   ar
    21    26    29    1
    22    29    30    1
    23    29    31    1
    24    29    32    1
    25    26    27   ar
    26    27    28   ar
    27     6     7    1
    28     7     8    1
    29    19    20    1
    30    20    21    1
    31    21    19    1
    32    14     9    1
    33     8     3    1
    34    28    24   ar
    35    15    18    1
@<TRIPOS>MOLECULE
*****
 32 35 0 0 0
SMALL
GASTEIGER

@<TRIPOS>ATOM
      1 C         138.8651  140.2634  164.0976 C.2     1  UNL1        0.2257
      2 O         138.3317  139.2215  165.0356 O.2     1  UNL1       -0.2749
      3 N         139.3824  139.8631  162.7477 N.am    1  UNL1       -0.2760
      4 C         139.9158  140.9051  161.8097 C.3     1  UNL1        0.1149
      5 C         140.4331  140.5048  160.4599 C.3     1  UNL1        0.1141
      6 N         140.4171  139.0625  160.0480 N.pl3   1  UNL1       -0.2847
      7 C         139.8838  138.0206  160.9860 C.3     1  UNL1        0.1141
      8 C         139.3664  138.4209  162.3358 C.3     1  UNL1        0.1149
      9 C         140.0859  142.2758  165.1975 C.3     1  UNL1        0.0851
     10 C         140.1020  143.7181  165.6093 C.3     1  UNL1        0.0096
     11 C         138.9133  144.5902  165.3331 C.3     1  UNL1        0.0005
     12 C         137.7085  144.0200  164.6451 C.3     1  UNL1        0.0005
     13 C         137.6924  142.5778  164.2333 C.3     1  UNL1        0.0096
     14 C         138.8811  141.7057  164.5094 C.3     1  UNL1        0.0853
     15 N         141.1089  140.1364  166.2589 N.am    1  UNL1       -0.2959
     16 C         141.2747  141.4037  165.4737 C.2     1  UNL1        0.2231
     17 O         142.6292  141.7988  164.9646 O.2     1  UNL1       -0.2751
     18 H         140.2199  139.8771  166.5930 H       1  UNL1        0.1502
     19 C         142.2977  139.2643  166.5351 C.3     1  UNL1        0.1364
     20 C         143.3686  138.2343  166.3290 C.3     1  UNL1        0.0353
     21 C         142.3711  138.5071  165.2423 C.3     1  UNL1        0.0353
     22 N         142.9762  140.1730  169.3125 N.1     1  UNL1       -0.1943
     23 C         142.6370  139.7187  167.9237 C.1     1  UNL1        0.0896
     24 C         140.9345  138.6622  158.6981 C.ar    1  UNL1        0.1631
     25 N         142.1941  137.8935  158.4291 N.ar    1  UNL1       -0.2201
     26 C         142.3211  137.7166  156.9450 C.ar    1  UNL1        0.1610
     27 C         141.1400  138.3759  156.2968 C.ar    1  UNL1        0.0612
     28 S         140.2830  138.9604  157.3803 S.2     1  UNL1       -0.0510
     29 C         143.4340  137.0052  156.2340 C.3     1  UNL1        0.4354
     30 F         144.5467  136.2939  155.5230 F       1  UNL1       -0.1644
     31 F         144.0656  138.3248  155.9023 F       1  UNL1       -0.1644
     32 F         142.8023  135.6857  156.5656 F       1  UNL1       -0.1644
@<TRIPOS>BOND
     1    22    23    3
     2    23    19    1
     3    19    15    1
     4    15    16   am
     5    16    17    2
     6     9    16    1
     7     9    10    1
     8    10    11    1
     9    11    12    1
    10    12    13    1
    11    13    14    1
    12    14     1    1
    13     1     2    2
    14     1     3   am
    15     3     4    1
    16     4     5    1
    17     5     6    1
    18     6    24    1
    19    24    25   ar
    20    25    26   ar
    21    26    29    1
    22    29    30    1
    23    29    31    1
    24    29    32    1
    25    26    27   ar
    26    27    28   ar
    27     6     7    1
    28     7     8    1
    29    19    20    1
    30    20    21    1
    31    21    19    1
    32    14     9    1
    33     8     3    1
    34    28    24   ar
    35    15    18    1
@<TRIPOS>MOLECULE
*****
 32 35 0 0 0
SMALL
GASTEIGER

@<TRIPOS>ATOM
      1 C         140.8299  142.0449  163.0546 C.2     1  UNL1        0.2257
      2 O         139.4342  142.4910  163.3758 O.2     1  UNL1       -0.2749
      3 N         141.0776  141.1407  161.8837 N.am    1  UNL1       -0.2760
      4 C         142.4733  140.6947  161.5626 C.3     1  UNL1        0.1149
      5 C         142.7210  139.7904  160.3917 C.3     1  UNL1        0.1141
      6 N         141.5729  139.3322  159.5420 N.pl3   1  UNL1       -0.2847
      7 C         140.1773  139.7782  159.8631 C.3     1  UNL1        0.1141
      8 C         139.9296  140.6824  161.0340 C.3     1  UNL1        0.1149
      9 C         142.2362  141.8517  165.2306 C.3     1  UNL1        0.0851
     10 C         143.3842  142.3099  166.0804 C.3     1  UNL1        0.0096
     11 C         144.2739  143.4195  165.6039 C.3     1  UNL1        0.0005
     12 C         144.0156  144.0710  164.2777 C.3     1  UNL1        0.0005
     13 C         142.8677  143.6128  163.4279 C.3     1  UNL1        0.0096
     14 C         141.9780  142.5032  163.9044 C.3     1  UNL1        0.0853
     15 N         139.9645  141.0491  166.2027 N.am    1  UNL1       -0.2959
     16 C         141.3465  140.7420  165.7071 C.2     1  UNL1        0.2231
     17 O         141.8388  139.3252  165.6878 O.2     1  UNL1       -0.2751
     18 H         139.6414  141.9790  166.2153 H       1  UNL1        0.1502
     19 C         139.0747  139.9394  166.6792 C.3     1  UNL1        0.1364
     20 C         138.0490  138.8452  166.6530 C.3     1  UNL1        0.0353
     21 C         138.3743  139.5986  165.3973 C.3     1  UNL1        0.0353
     22 N         139.8576  139.8504  169.5739 N.1     1  UNL1       -0.1943
     23 C         139.4662  139.8949  168.1265 C.1     1  UNL1        0.0896
     24 C         141.8206  138.4279  158.3711 C.ar    1  UNL1        0.1631
     25 N         142.7825  137.2775  158.3335 N.ar    1  UNL1       -0.2201
     26 C         142.7063  136.6539  156.9714 C.ar    1  UNL1        0.1610
     27 C         141.6973  137.4189  156.1671 C.ar    1  UNL1        0.0612
     28 S         141.1499  138.5152  157.0322 S.2     1  UNL1       -0.0510
     29 C         143.4997  135.4727  156.4968 C.3     1  UNL1        0.4354
     30 F         144.2931  134.2916  156.0222 F       1  UNL1       -0.1644
     31 F         143.6412  136.1103  155.1464 F       1  UNL1       -0.1644
     32 F         143.3582  134.8352  157.8472 F       1  UNL1       -0.1644
@<TRIPOS>BOND
     1    22    23    3
     2    23    19    1
     3    19    15    1
     4    15    16   am
     5    16    17    2
     6     9    16    1
     7     9    10    1
     8    10    11    1
     9    11    12    1
    10    12    13    1
    11    13    14    1
    12    14     1    1
    13     1     2    2
    14     1     3   am
    15     3     4    1
    16     4     5    1
    17     5     6    1
    18     6    24    1
    19    24    25   ar
    20    25    26   ar
    21    26    29    1
    22    29    30    1
    23    29    31    1
    24    29    32    1
    25    26    27   ar
    26    27    28   ar
    27     6     7    1
    28     7     8    1
    29    19    20    1
    30    20    21    1
    31    21    19    1
    32    14     9    1
    33     8     3    1
    34    28    24   ar
    35    15    18    1
@<TRIPOS>MOLECULE
*****
 32 35 0 0 0
SMALL
GASTEIGER

@<TRIPOS>ATOM
      1 C         138.0078  140.9948  163.3772 C.2     1  UNL1        0.2257
      2 O         136.9303  142.0265  163.2206 O.2     1  UNL1       -0.2749
      3 N         138.6116  140.3510  162.1644 N.am    1  UNL1       -0.2760
      4 C         139.6892  139.3192  162.3211 C.3     1  UNL1        0.1149
      5 C         140.2931  138.6754  161.1083 C.3     1  UNL1        0.1141
      6 N         139.8194  139.0633  159.7389 N.pl3   1  UNL1       -0.2847
      7 C         138.7419  140.0950  159.5823 C.3     1  UNL1        0.1141
      8 C         138.1380  140.7388  160.7950 C.3     1  UNL1        0.1149
      9 C         139.4693  141.4722  165.4715 C.3     1  UNL1        0.0851
     10 C         139.9430  141.0843  166.8408 C.3     1  UNL1        0.0096
     11 C         139.4288  139.8313  167.4853 C.3     1  UNL1        0.0005
     12 C         138.4409  138.9661  166.7604 C.3     1  UNL1        0.0005
     13 C         137.9672  139.3539  165.3911 C.3     1  UNL1        0.0096
     14 C         138.4814  140.6069  164.7466 C.3     1  UNL1        0.0853
     15 N         141.0507  142.6445  163.7759 N.am    1  UNL1       -0.2959
     16 C         139.9836  142.7253  164.8269 C.2     1  UNL1        0.2231
     17 O         139.4307  144.0590  165.2335 O.2     1  UNL1       -0.2751
     18 H         141.4136  141.7691  163.5091 H       1  UNL1        0.1502
     19 C         141.5649  143.8976  163.1313 C.3     1  UNL1        0.1364
     20 C         142.4361  145.0884  162.8610 C.3     1  UNL1        0.0353
     21 C         142.7714  144.1534  163.9851 C.3     1  UNL1        0.0353
     22 N         139.5089  144.2560  160.9762 N.1     1  UNL1       -0.1943
     23 C         140.5370  144.0768  162.0537 C.1     1  UNL1        0.0896
     24 C         140.4233  138.4194  158.5261 C.ar    1  UNL1        0.1631
     25 N         141.8406  137.9469  158.3922 N.ar    1  UNL1       -0.2201
     26 C         142.0092  137.3705  157.0177 C.ar    1  UNL1        0.1610
     27 C         140.6960  137.4868  156.3021 C.ar    1  UNL1        0.0612
     28 S         139.7159  138.1351  157.2343 S.2     1  UNL1       -0.0510
     29 C         143.2696  136.7813  156.4572 C.3     1  UNL1        0.4354
     30 F         144.5300  136.1921  155.8967 F       1  UNL1       -0.1644
     31 F         143.7812  138.1595  156.1589 F       1  UNL1       -0.1644
     32 F         142.7580  135.4031  156.7555 F       1  UNL1       -0.1644
@<TRIPOS>BOND
     1    22    23    3
     2    23    19    1
     3    19    15    1
     4    15    16   am
     5    16    17    2
     6     9    16    1
     7     9    10    1
     8    10    11    1
     9    11    12    1
    10    12    13    1
    11    13    14    1
    12    14     1    1
    13     1     2    2
    14     1     3   am
    15     3     4    1
    16     4     5    1
    17     5     6    1
    18     6    24    1
    19    24    25   ar
    20    25    26   ar
    21    26    29    1
    22    29    30    1
    23    29    31    1
    24    29    32    1
    25    26    27   ar
    26    27    28   ar
    27     6     7    1
    28     7     8    1
    29    19    20    1
    30    20    21    1
    31    21    19    1
    32    14     9    1
    33     8     3    1
    34    28    24   ar
    35    15    18    1
@<TRIPOS>MOLECULE
*****
 32 35 0 0 0
SMALL
GASTEIGER

@<TRIPOS>ATOM
      1 C         142.1869  142.9708  163.9609 C.2     1  UNL1        0.2257
      2 O         143.0814  142.8015  165.1530 O.2     1  UNL1       -0.2749
      3 N         142.7564  142.8760  162.5764 N.am    1  UNL1       -0.2760
      4 C         141.8618  143.0453  161.3842 C.3     1  UNL1        0.1149
      5 C         142.4313  142.9505  159.9998 C.3     1  UNL1        0.1141
      6 N         143.8954  142.6864  159.8075 N.pl3   1  UNL1       -0.2847
      7 C         144.7898  142.5171  160.9996 C.3     1  UNL1        0.1141
      8 C         144.2204  142.6119  162.3841 C.3     1  UNL1        0.1149
      9 C         139.7401  142.1046  164.0734 C.3     1  UNL1        0.0851
     10 C         138.2761  142.3686  164.2657 C.3     1  UNL1        0.0096
     11 C         137.7950  143.7631  164.5377 C.3     1  UNL1        0.0005
     12 C         138.7778  144.8934  164.6174 C.3     1  UNL1        0.0005
     13 C         140.2417  144.6293  164.4252 C.3     1  UNL1        0.0096
     14 C         140.7229  143.2349  164.1531 C.3     1  UNL1        0.0853
     15 N         140.7291  139.8589  164.9272 N.am    1  UNL1       -0.2959
     16 C         140.2213  140.7101  163.8014 C.2     1  UNL1        0.2231
     17 O         140.1947  140.1669  162.4034 O.2     1  UNL1       -0.2751
     18 H         140.7465  140.2155  165.8447 H       1  UNL1        0.1502
     19 C         141.2103  138.4644  164.6552 C.3     1  UNL1        0.1364
     20 C         141.1894  136.9744  164.4838 C.3     1  UNL1        0.0353
     21 C         139.9316  137.7049  164.8506 C.3     1  UNL1        0.0353
     22 N         144.1018  139.0151  164.0755 N.1     1  UNL1       -0.1943
     23 C         142.6560  138.7398  164.3654 C.1     1  UNL1        0.0896
     24 C         144.4649  142.5916  158.4231 C.ar    1  UNL1        0.1631
     25 N         145.9211  142.5135  158.0721 N.ar    1  UNL1       -0.2201
     26 C         146.0344  142.4319  156.5786 C.ar    1  UNL1        0.1610
     27 C         144.6480  142.4595  156.0065 C.ar    1  UNL1        0.0612
     28 S         143.6781  142.5583  157.1464 S.2     1  UNL1       -0.0510
     29 C         147.3100  142.3389  155.7949 C.3     1  UNL1        0.4354
     30 F         148.5855  142.2460  155.0113 F       1  UNL1       -0.1644
     31 F         148.0951  142.6386  157.0375 F       1  UNL1       -0.1644
     32 F         146.5248  142.0393  154.5525 F       1  UNL1       -0.1644
@<TRIPOS>BOND
     1    22    23    3
     2    23    19    1
     3    19    15    1
     4    15    16   am
     5    16    17    2
     6     9    16    1
     7     9    10    1
     8    10    11    1
     9    11    12    1
    10    12    13    1
    11    13    14    1
    12    14     1    1
    13     1     2    2
    14     1     3   am
    15     3     4    1
    16     4     5    1
    17     5     6    1
    18     6    24    1
    19    24    25   ar
    20    25    26   ar
    21    26    29    1
    22    29    30    1
    23    29    31    1
    24    29    32    1
    25    26    27   ar
    26    27    28   ar
    27     6     7    1
    28     7     8    1
    29    19    20    1
    30    20    21    1
    31    21    19    1
    32    14     9    1
    33     8     3    1
    34    28    24   ar
    35    15    18    1
