@<TRIPOS>MOLECULE
*****
 30 34 0 0 0
SMALL
GASTEIGER

@<TRIPOS>ATOM
      1 C         140.7992  140.3042  167.7316 C.2     1  UNL1        0.0866
      2 N         139.3492  139.9209  167.7579 N.2     1  UNL1       -0.1523
      3 N         139.0346  139.2089  166.4757 N.2     1  UNL1       -0.1523
      4 C         140.2902  139.1521  165.6569 C.2     1  UNL1        0.0858
      5 C         141.3807  139.8290  166.4332 C.3     1  UNL1        0.0883
      6 C         142.6363  139.7722  165.6144 C.3     1  UNL1        0.0384
      7 C         142.3217  139.0602  164.3322 C.ar    1  UNL1       -0.0205
      8 C         143.1683  138.7113  163.1441 C.ar    1  UNL1       -0.0071
      9 C         142.5648  137.9792  161.9823 C.ar    1  UNL1       -0.0065
     10 C         141.1149  137.5960  162.0086 C.ar    1  UNL1       -0.0029
     11 C         140.2683  137.9448  163.1967 C.ar    1  UNL1        0.0006
     12 C         140.8718  138.6770  164.3585 C.ar    1  UNL1        0.0117
     13 C         143.2475  142.2748  170.0093 C.ar    1  UNL1        0.0709
     14 C         142.8990  141.6526  168.6897 C.ar    1  UNL1        0.0165
     15 C         141.5379  141.0344  168.8138 C.ar    1  UNL1        0.0233
     16 C         141.0453  141.2745  170.2101 C.ar    1  UNL1        0.0373
     17 S         142.1019  142.0412  170.9490 S.2     1  UNL1       -0.0780
     18 C         145.7895  143.7309  170.6556 C.1     1  UNL1       -0.0859
     19 C         144.5185  143.0029  170.3325 C.1     1  UNL1       -0.0578
     20 C         147.0606  144.4590  170.9786 C.3     1  UNL1        0.0764
     21 C         145.9611  146.6877  171.7363 C.3     1  UNL1        0.0011
     22 C         147.0321  145.6490  171.8914 C.3     1  UNL1        0.0140
     23 C         143.4114  137.6303  160.7941 C.3     1  UNL1        0.0992
     24 N         143.2847  138.4200  159.5251 N.3     1  UNL1       -0.2665
     25 C         143.7712  139.8379  159.4724 C.3     1  UNL1        0.0899
     26 C         143.6446  140.6276  158.2034 C.3     1  UNL1        0.0897
     27 N         143.0313  139.9993  156.9871 N.3     1  UNL1       -0.2691
     28 C         142.9047  140.7890  155.7181 C.3     1  UNL1        0.0897
     29 C         142.5449  138.5814  157.0399 C.3     1  UNL1        0.0897
     30 C         142.6715  137.7917  158.3089 C.3     1  UNL1        0.0899
@<TRIPOS>BOND
     1    21    22    1
     2    22    20    1
     3    20    18    1
     4    18    19    3
     5    19    13    1
     6    13    14   ar
     7    14    15   ar
     8    15     1    1
     9     1     2    2
    10     2     3    1
    11     3     4    2
    12     4     5    1
    13     5     6    1
    14     6     7    1
    15     7     8   ar
    16     8     9   ar
    17     9    23    1
    18    23    24    1
    19    24    25    1
    20    25    26    1
    21    26    27    1
    22    27    28    1
    23    27    29    1
    24    29    30    1
    25     9    10   ar
    26    10    11   ar
    27    11    12   ar
    28    15    16   ar
    29    16    17   ar
    30    17    13   ar
    31     5     1    1
    32    12     7   ar
    33    12     4    1
    34    30    24    1
@<TRIPOS>MOLECULE
*****
 30 34 0 0 0
SMALL
GASTEIGER

@<TRIPOS>ATOM
      1 C         139.9857  140.0670  168.1878 C.2     1  UNL1        0.0866
      2 N         138.6468  139.4571  168.4799 N.2     1  UNL1       -0.1523
      3 N         138.1513  138.8031  167.2242 N.2     1  UNL1       -0.1523
      4 C         139.1841  139.0089  166.1559 C.2     1  UNL1        0.0858
      5 C         140.3178  139.7899  166.7514 C.3     1  UNL1        0.0883
      6 C         141.3505  139.9956  165.6832 C.3     1  UNL1        0.0384
      7 C         140.8551  139.3416  164.4274 C.ar    1  UNL1       -0.0205
      8 C         141.4502  139.2227  163.0557 C.ar    1  UNL1       -0.0071
      9 C         140.7063  138.4939  161.9761 C.ar    1  UNL1       -0.0065
     10 C         139.3674  137.8841  162.2683 C.ar    1  UNL1       -0.0029
     11 C         138.7723  138.0030  163.6400 C.ar    1  UNL1        0.0006
     12 C         139.5161  138.7318  164.7196 C.ar    1  UNL1        0.0117
     13 C         142.6836  142.0714  170.1291 C.ar    1  UNL1        0.0709
     14 C         142.1926  141.4090  168.8760 C.ar    1  UNL1        0.0165
     15 C         140.8422  140.8214  169.1610 C.ar    1  UNL1        0.0233
     16 C         140.4986  141.1208  170.5901 C.ar    1  UNL1        0.0373
     17 S         141.6367  141.8934  171.1884 S.2     1  UNL1       -0.0780
     18 C         145.3001  143.5015  170.4585 C.1     1  UNL1       -0.0859
     19 C         143.9919  142.7865  170.2938 C.1     1  UNL1       -0.0578
     20 C         146.6085  144.2165  170.6232 C.3     1  UNL1        0.0764
     21 C         146.0504  146.5063  171.7165 C.3     1  UNL1        0.0011
     22 C         146.7896  145.2013  171.7401 C.3     1  UNL1        0.0140
     23 C         141.3014  138.3749  160.6043 C.3     1  UNL1        0.0992
     24 N         140.6916  139.1213  159.4550 N.3     1  UNL1       -0.2665
     25 C         140.0722  138.3678  158.3154 C.3     1  UNL1        0.0899
     26 C         139.4623  139.1142  157.1661 C.3     1  UNL1        0.0897
     27 N         139.4719  140.6141  157.1563 N.3     1  UNL1       -0.2691
     28 C         138.8621  141.3605  156.0069 C.3     1  UNL1        0.0897
     29 C         140.0913  141.3676  158.2958 C.3     1  UNL1        0.0897
     30 C         140.7012  140.6212  159.4451 C.3     1  UNL1        0.0899
@<TRIPOS>BOND
     1    21    22    1
     2    22    20    1
     3    20    18    1
     4    18    19    3
     5    19    13    1
     6    13    14   ar
     7    14    15   ar
     8    15     1    1
     9     1     2    2
    10     2     3    1
    11     3     4    2
    12     4     5    1
    13     5     6    1
    14     6     7    1
    15     7     8   ar
    16     8     9   ar
    17     9    23    1
    18    23    24    1
    19    24    25    1
    20    25    26    1
    21    26    27    1
    22    27    28    1
    23    27    29    1
    24    29    30    1
    25     9    10   ar
    26    10    11   ar
    27    11    12   ar
    28    15    16   ar
    29    16    17   ar
    30    17    13   ar
    31     5     1    1
    32    12     7   ar
    33    12     4    1
    34    30    24    1
@<TRIPOS>MOLECULE
*****
 30 34 0 0 0
SMALL
GASTEIGER

@<TRIPOS>ATOM
      1 C         144.2554  142.0918  159.2561 C.2     1  UNL1        0.0866
      2 N         145.1881  142.7125  158.2587 N.2     1  UNL1       -0.1523
      3 N         145.2723  141.7992  157.0718 N.2     1  UNL1       -0.1523
      4 C         144.3916  140.6139  157.3357 C.2     1  UNL1        0.0858
      5 C         143.7632  140.7948  158.6856 C.3     1  UNL1        0.0883
      6 C         142.8825  139.6095  158.9495 C.3     1  UNL1        0.0384
      7 C         142.9666  138.6961  157.7626 C.ar    1  UNL1       -0.0205
      8 C         142.3145  137.3794  157.4612 C.ar    1  UNL1       -0.0071
      9 C         142.5950  136.6834  156.1624 C.ar    1  UNL1       -0.0065
     10 C         143.5277  137.3042  155.1651 C.ar    1  UNL1       -0.0029
     11 C         144.1799  138.6209  155.4665 C.ar    1  UNL1        0.0006
     12 C         143.8993  139.3169  156.7652 C.ar    1  UNL1        0.0117
     13 C         142.5806  143.5360  162.4459 C.ar    1  UNL1        0.0709
     14 C         142.4896  142.9788  161.0562 C.ar    1  UNL1        0.0165
     15 C         143.8808  142.6670  160.5898 C.ar    1  UNL1        0.0233
     16 C         144.8316  143.0315  161.6913 C.ar    1  UNL1        0.0373
     17 S         144.0280  143.5685  162.8384 S.2     1  UNL1       -0.0780
     18 C         140.2731  144.4285  164.1423 C.1     1  UNL1       -0.0859
     19 C         141.4268  143.9823  163.2941 C.1     1  UNL1       -0.0578
     20 C         139.1192  144.8747  164.9907 C.3     1  UNL1        0.0764
     21 C         137.6866  142.8886  164.1231 C.3     1  UNL1        0.0011
     22 C         137.7961  144.1761  164.8850 C.3     1  UNL1        0.0140
     23 C         141.9428  135.3666  155.8610 C.3     1  UNL1        0.0992
     24 N         142.5787  134.0906  156.3274 N.3     1  UNL1       -0.2665
     25 C         143.7829  134.1355  157.2207 C.3     1  UNL1        0.0899
     26 C         144.4187  132.8595  157.6871 C.3     1  UNL1        0.0897
     27 N         143.8503  131.5386  157.2601 N.3     1  UNL1       -0.2691
     28 C         144.4862  130.2625  157.7265 C.3     1  UNL1        0.0897
     29 C         142.6462  131.4937  156.3668 C.3     1  UNL1        0.0897
     30 C         142.0104  132.7697  155.9004 C.3     1  UNL1        0.0899
@<TRIPOS>BOND
     1    21    22    1
     2    22    20    1
     3    20    18    1
     4    18    19    3
     5    19    13    1
     6    13    14   ar
     7    14    15   ar
     8    15     1    1
     9     1     2    2
    10     2     3    1
    11     3     4    2
    12     4     5    1
    13     5     6    1
    14     6     7    1
    15     7     8   ar
    16     8     9   ar
    17     9    23    1
    18    23    24    1
    19    24    25    1
    20    25    26    1
    21    26    27    1
    22    27    28    1
    23    27    29    1
    24    29    30    1
    25     9    10   ar
    26    10    11   ar
    27    11    12   ar
    28    15    16   ar
    29    16    17   ar
    30    17    13   ar
    31     5     1    1
    32    12     7   ar
    33    12     4    1
    34    30    24    1
@<TRIPOS>MOLECULE
*****
 30 34 0 0 0
SMALL
GASTEIGER

@<TRIPOS>ATOM
      1 C         141.9480  142.3503  167.2261 C.2     1  UNL1        0.0866
      2 N         143.4460  142.2758  167.2069 N.2     1  UNL1       -0.1523
      3 N         143.9131  142.6846  165.8413 N.2     1  UNL1       -0.1523
      4 C         142.7036  143.0119  165.0165 C.2     1  UNL1        0.0858
      5 C         141.4892  142.8053  165.8724 C.3     1  UNL1        0.0883
      6 C         140.2798  143.1325  165.0476 C.3     1  UNL1        0.0384
      7 C         140.7467  143.5414  163.6820 C.ar    1  UNL1       -0.0205
      8 C         140.0014  143.9719  162.4536 C.ar    1  UNL1       -0.0071
      9 C         140.7541  144.3279  161.2059 C.ar    1  UNL1       -0.0065
     10 C         142.2522  144.2534  161.1867 C.ar    1  UNL1       -0.0029
     11 C         142.9975  143.8228  162.4152 C.ar    1  UNL1        0.0006
     12 C         142.2448  143.4668  163.6628 C.ar    1  UNL1        0.0117
     13 C         139.3644  140.9962  169.7866 C.ar    1  UNL1        0.0709
     14 C         139.9953  140.9746  168.4260 C.ar    1  UNL1        0.0165
     15 C         141.0640  142.0268  168.3939 C.ar    1  UNL1        0.0233
     16 C         141.0935  142.6986  169.7348 C.ar    1  UNL1        0.0373
     17 S         140.0430  142.0616  170.5955 S.2     1  UNL1       -0.0780
     18 C         137.1363  139.2202  170.7253 C.1     1  UNL1       -0.0859
     19 C         138.2503  140.1082  170.2560 C.1     1  UNL1       -0.0578
     20 C         136.0222  138.3322  171.1947 C.3     1  UNL1        0.0764
     21 C         135.3102  137.1093  173.3736 C.3     1  UNL1        0.0011
     22 C         136.2823  137.2948  172.2465 C.3     1  UNL1        0.0140
     23 C         140.0088  144.7585  159.9774 C.3     1  UNL1        0.0992
     24 N         140.6313  144.5860  158.6236 N.3     1  UNL1       -0.2665
     25 C         141.4076  145.7113  158.0062 C.3     1  UNL1        0.0899
     26 C         142.0301  145.5389  156.6524 C.3     1  UNL1        0.0897
     27 N         141.8762  144.2411  155.9160 N.3     1  UNL1       -0.2691
     28 C         142.4987  144.0687  154.5622 C.3     1  UNL1        0.0897
     29 C         141.0999  143.1159  156.5334 C.3     1  UNL1        0.0897
     30 C         140.4775  143.2884  157.8872 C.3     1  UNL1        0.0899
@<TRIPOS>BOND
     1    21    22    1
     2    22    20    1
     3    20    18    1
     4    18    19    3
     5    19    13    1
     6    13    14   ar
     7    14    15   ar
     8    15     1    1
     9     1     2    2
    10     2     3    1
    11     3     4    2
    12     4     5    1
    13     5     6    1
    14     6     7    1
    15     7     8   ar
    16     8     9   ar
    17     9    23    1
    18    23    24    1
    19    24    25    1
    20    25    26    1
    21    26    27    1
    22    27    28    1
    23    27    29    1
    24    29    30    1
    25     9    10   ar
    26    10    11   ar
    27    11    12   ar
    28    15    16   ar
    29    16    17   ar
    30    17    13   ar
    31     5     1    1
    32    12     7   ar
    33    12     4    1
    34    30    24    1
@<TRIPOS>MOLECULE
*****
 30 34 0 0 0
SMALL
GASTEIGER

@<TRIPOS>ATOM
      1 C         141.8285  143.9392  161.1868 C.2     1  UNL1        0.0866
      2 N         143.0962  143.1995  160.8773 N.2     1  UNL1       -0.1523
      3 N         143.4021  143.3930  159.4215 N.2     1  UNL1       -0.1523
      4 C         142.3234  144.2522  158.8314 C.2     1  UNL1        0.0858
      5 C         141.3509  144.5897  159.9224 C.3     1  UNL1        0.0883
      6 C         140.2722  145.4489  159.3323 C.3     1  UNL1        0.0384
      7 C         140.5780  145.6424  157.8766 C.ar    1  UNL1       -0.0205
      8 C         139.8659  146.3965  156.7930 C.ar    1  UNL1       -0.0071
      9 C         140.4216  146.4109  155.3998 C.ar    1  UNL1       -0.0065
     10 C         141.6893  145.6713  155.0903 C.ar    1  UNL1       -0.0029
     11 C         142.4014  144.9172  156.1739 C.ar    1  UNL1        0.0006
     12 C         141.8457  144.9028  157.5671 C.ar    1  UNL1        0.0117
     13 C         140.5366  143.5548  164.8267 C.ar    1  UNL1        0.0709
     14 C         141.4320  143.1261  163.7022 C.ar    1  UNL1        0.0165
     15 C         141.1564  144.0149  162.5257 C.ar    1  UNL1        0.0233
     16 C         140.0906  144.9929  162.9231 C.ar    1  UNL1        0.0373
     17 S         139.7076  144.7084  164.3452 S.2     1  UNL1       -0.0780
     18 C         140.4237  142.3212  167.5589 C.1     1  UNL1       -0.0859
     19 C         140.4801  142.9379  166.1928 C.1     1  UNL1       -0.0578
     20 C         140.3673  141.7043  168.9251 C.3     1  UNL1        0.0764
     21 C         140.3837  144.0717  169.9950 C.3     1  UNL1        0.0011
     22 C         140.3554  142.5793  170.1433 C.3     1  UNL1        0.0140
     23 C         139.7095  147.1650  154.3161 C.3     1  UNL1        0.0992
     24 N         139.4200  148.6271  154.4856 N.3     1  UNL1       -0.2665
     25 C         138.6763  149.1090  155.6959 C.3     1  UNL1        0.0899
     26 C         138.3868  150.5710  155.8654 C.3     1  UNL1        0.0897
     27 N         138.8410  151.5511  154.8246 N.3     1  UNL1       -0.2691
     28 C         138.5515  153.0131  154.9941 C.3     1  UNL1        0.0897
     29 C         139.5846  151.0691  153.6144 C.3     1  UNL1        0.0897
     30 C         139.8741  149.6071  153.4449 C.3     1  UNL1        0.0899
@<TRIPOS>BOND
     1    21    22    1
     2    22    20    1
     3    20    18    1
     4    18    19    3
     5    19    13    1
     6    13    14   ar
     7    14    15   ar
     8    15     1    1
     9     1     2    2
    10     2     3    1
    11     3     4    2
    12     4     5    1
    13     5     6    1
    14     6     7    1
    15     7     8   ar
    16     8     9   ar
    17     9    23    1
    18    23    24    1
    19    24    25    1
    20    25    26    1
    21    26    27    1
    22    27    28    1
    23    27    29    1
    24    29    30    1
    25     9    10   ar
    26    10    11   ar
    27    11    12   ar
    28    15    16   ar
    29    16    17   ar
    30    17    13   ar
    31     5     1    1
    32    12     7   ar
    33    12     4    1
    34    30    24    1
@<TRIPOS>MOLECULE
*****
 30 34 0 0 0
SMALL
GASTEIGER

@<TRIPOS>ATOM
      1 C         142.9061  138.9467  158.5614 C.2     1  UNL1        0.0866
      2 N         143.5039  140.2669  158.1746 N.2     1  UNL1       -0.1523
      3 N         143.9489  140.9595  159.4286 N.2     1  UNL1       -0.1523
      4 C         143.6260  140.0672  160.5904 C.2     1  UNL1        0.0858
      5 C         142.9816  138.8232  160.0544 C.3     1  UNL1        0.0883
      6 C         142.6588  137.9310  161.2162 C.3     1  UNL1        0.0384
      7 C         143.1037  138.6235  162.4702 C.ar    1  UNL1       -0.0205
      8 C         143.0418  138.2225  163.9142 C.ar    1  UNL1       -0.0071
      9 C         143.5776  139.1417  164.9715 C.ar    1  UNL1       -0.0065
     10 C         144.1754  140.4619  164.5847 C.ar    1  UNL1       -0.0029
     11 C         144.2374  140.8630  163.1407 C.ar    1  UNL1        0.0006
     12 C         143.7015  139.9438  162.0834 C.ar    1  UNL1        0.0117
     13 C         142.0836  135.9608  156.2218 C.ar    1  UNL1        0.0709
     14 C         143.0188  136.6811  157.1474 C.ar    1  UNL1        0.0165
     15 C         142.3333  137.9286  157.6204 C.ar    1  UNL1        0.0233
     16 C         140.9744  137.9794  156.9872 C.ar    1  UNL1        0.0373
     17 S         140.8201  136.7632  156.1228 S.2     1  UNL1       -0.0780
     18 C         142.6422  133.3703  154.8158 C.1     1  UNL1       -0.0859
     19 C         142.3629  134.6655  155.5188 C.1     1  UNL1       -0.0578
     20 C         142.9214  132.0750  154.1128 C.3     1  UNL1        0.0764
     21 C         144.6975  131.4578  155.9057 C.3     1  UNL1        0.0011
     22 C         143.8496  131.0714  154.7302 C.3     1  UNL1        0.0140
     23 C         143.5157  138.7407  166.4156 C.3     1  UNL1        0.0992
     24 N         142.3953  139.2327  167.2832 N.3     1  UNL1       -0.2665
     25 C         142.5780  139.3136  168.7699 C.3     1  UNL1        0.0899
     26 C         141.4577  139.8057  169.6375 C.3     1  UNL1        0.0897
     27 N         140.1547  140.2168  169.0184 N.3     1  UNL1       -0.2691
     28 C         139.0343  140.7089  169.8860 C.3     1  UNL1        0.0897
     29 C         139.9721  140.1359  167.5318 C.3     1  UNL1        0.0897
     30 C         141.0924  139.6439  166.6642 C.3     1  UNL1        0.0899
@<TRIPOS>BOND
     1    21    22    1
     2    22    20    1
     3    20    18    1
     4    18    19    3
     5    19    13    1
     6    13    14   ar
     7    14    15   ar
     8    15     1    1
     9     1     2    2
    10     2     3    1
    11     3     4    2
    12     4     5    1
    13     5     6    1
    14     6     7    1
    15     7     8   ar
    16     8     9   ar
    17     9    23    1
    18    23    24    1
    19    24    25    1
    20    25    26    1
    21    26    27    1
    22    27    28    1
    23    27    29    1
    24    29    30    1
    25     9    10   ar
    26    10    11   ar
    27    11    12   ar
    28    15    16   ar
    29    16    17   ar
    30    17    13   ar
    31     5     1    1
    32    12     7   ar
    33    12     4    1
    34    30    24    1
@<TRIPOS>MOLECULE
*****
 30 34 0 0 0
SMALL
GASTEIGER

@<TRIPOS>ATOM
      1 C         138.5603  140.3411  158.1805 C.2     1  UNL1        0.0866
      2 N         139.1283  139.0463  157.6795 N.2     1  UNL1       -0.1523
      3 N         139.3950  138.1674  158.8654 N.2     1  UNL1       -0.1523
      4 C         138.9919  138.9190  160.0994 C.2     1  UNL1        0.0858
      5 C         138.4760  140.2624  159.6761 C.3     1  UNL1        0.0883
      6 C         138.0729  141.0139  160.9100 C.3     1  UNL1        0.0384
      7 C         138.3396  140.1351  162.0960 C.ar    1  UNL1       -0.0205
      8 C         138.1386  140.3465  163.5673 C.ar    1  UNL1       -0.0071
      9 C         138.5057  139.2631  164.5376 C.ar    1  UNL1       -0.0065
     10 C         139.0736  137.9684  164.0366 C.ar    1  UNL1       -0.0029
     11 C         139.2746  137.7569  162.5653 C.ar    1  UNL1        0.0006
     12 C         138.9076  138.8403  161.5950 C.ar    1  UNL1        0.0117
     13 C         138.1581  143.6557  156.2013 C.ar    1  UNL1        0.0709
     14 C         138.9465  142.7599  157.1102 C.ar    1  UNL1        0.0165
     15 C         138.1489  141.5094  157.3345 C.ar    1  UNL1        0.0233
     16 C         136.8676  141.6324  156.5643 C.ar    1  UNL1        0.0373
     17 S         136.8734  142.9589  155.8639 S.2     1  UNL1       -0.0780
     18 C         139.0028  146.3651  155.2292 C.1     1  UNL1       -0.0859
     19 C         138.5805  145.0104  155.7152 C.1     1  UNL1       -0.0578
     20 C         139.4253  147.7199  154.7431 C.3     1  UNL1        0.0764
     21 C         139.2268  150.3084  154.8432 C.3     1  UNL1        0.0011
     22 C         138.8349  148.9547  155.3568 C.3     1  UNL1        0.0140
     23 C         138.3047  139.4745  166.0091 C.3     1  UNL1        0.0992
     24 N         139.4686  139.8465  166.8791 N.3     1  UNL1       -0.2665
     25 C         139.2955  139.9331  168.3666 C.3     1  UNL1        0.0899
     26 C         140.4594  140.3051  169.2367 C.3     1  UNL1        0.0897
     27 N         141.7964  140.5904  168.6193 N.3     1  UNL1       -0.2691
     28 C         142.9602  140.9623  169.4894 C.3     1  UNL1        0.0897
     29 C         141.9694  140.5037  167.1319 C.3     1  UNL1        0.0897
     30 C         140.8055  140.1317  166.2618 C.3     1  UNL1        0.0899
@<TRIPOS>BOND
     1    21    22    1
     2    22    20    1
     3    20    18    1
     4    18    19    3
     5    19    13    1
     6    13    14   ar
     7    14    15   ar
     8    15     1    1
     9     1     2    2
    10     2     3    1
    11     3     4    2
    12     4     5    1
    13     5     6    1
    14     6     7    1
    15     7     8   ar
    16     8     9   ar
    17     9    23    1
    18    23    24    1
    19    24    25    1
    20    25    26    1
    21    26    27    1
    22    27    28    1
    23    27    29    1
    24    29    30    1
    25     9    10   ar
    26    10    11   ar
    27    11    12   ar
    28    15    16   ar
    29    16    17   ar
    30    17    13   ar
    31     5     1    1
    32    12     7   ar
    33    12     4    1
    34    30    24    1
@<TRIPOS>MOLECULE
*****
 30 34 0 0 0
SMALL
GASTEIGER

@<TRIPOS>ATOM
      1 C         139.7239  138.7789  158.6467 C.2     1  UNL1        0.0866
      2 N         138.6184  139.6790  158.1799 N.2     1  UNL1       -0.1523
      3 N         137.9388  140.2452  159.3914 N.2     1  UNL1       -0.1523
      4 C         138.6244  139.6950  160.6069 C.2     1  UNL1        0.0858
      5 C         139.7275  138.7888  160.1466 C.3     1  UNL1        0.0883
      6 C         140.4130  138.2387  161.3621 C.3     1  UNL1        0.0384
      7 C         139.7335  138.8048  162.5737 C.ar    1  UNL1       -0.0205
      8 C         139.9785  138.6170  164.0415 C.ar    1  UNL1       -0.0071
      9 C         139.1181  139.3293  165.0426 C.ar    1  UNL1       -0.0065
     10 C         138.0126  140.2293  164.5759 C.ar    1  UNL1       -0.0029
     11 C         137.7676  140.4171  163.1080 C.ar    1  UNL1        0.0006
     12 C         138.6280  139.7048  162.1069 C.ar    1  UNL1        0.0117
     13 C         141.5241  136.5888  155.9957 C.ar    1  UNL1        0.0709
     14 C         140.2746  137.1858  156.5721 C.ar    1  UNL1        0.0165
     15 C         140.6611  138.0049  157.7678 C.ar    1  UNL1        0.0233
     16 C         142.1496  137.9141  157.9304 C.ar    1  UNL1        0.0373
     17 S         142.6829  137.0388  156.8350 S.2     1  UNL1       -0.0780
     18 C         141.6783  134.8074  153.5869 C.1     1  UNL1       -0.0859
     19 C         141.6012  135.6980  154.7912 C.1     1  UNL1       -0.0578
     20 C         141.7554  133.9167  152.3824 C.3     1  UNL1        0.0764
     21 C         142.8966  131.8418  153.4513 C.3     1  UNL1        0.0011
     22 C         141.8480  132.4294  152.5540 C.3     1  UNL1        0.0140
     23 C         139.3631  139.1415  166.5106 C.3     1  UNL1        0.0992
     24 N         139.6869  140.3244  167.3742 N.3     1  UNL1       -0.2665
     25 C         140.2723  141.5623  166.7618 C.3     1  UNL1        0.0899
     26 C         140.5961  142.7452  167.6255 C.3     1  UNL1        0.0897
     27 N         140.3345  142.6903  169.1015 N.3     1  UNL1       -0.2691
     28 C         140.6583  143.8732  169.9651 C.3     1  UNL1        0.0897
     29 C         139.7491  141.4524  169.7138 C.3     1  UNL1        0.0897
     30 C         139.4253  140.2695  168.8502 C.3     1  UNL1        0.0899
@<TRIPOS>BOND
     1    21    22    1
     2    22    20    1
     3    20    18    1
     4    18    19    3
     5    19    13    1
     6    13    14   ar
     7    14    15   ar
     8    15     1    1
     9     1     2    2
    10     2     3    1
    11     3     4    2
    12     4     5    1
    13     5     6    1
    14     6     7    1
    15     7     8   ar
    16     8     9   ar
    17     9    23    1
    18    23    24    1
    19    24    25    1
    20    25    26    1
    21    26    27    1
    22    27    28    1
    23    27    29    1
    24    29    30    1
    25     9    10   ar
    26    10    11   ar
    27    11    12   ar
    28    15    16   ar
    29    16    17   ar
    30    17    13   ar
    31     5     1    1
    32    12     7   ar
    33    12     4    1
    34    30    24    1
@<TRIPOS>MOLECULE
*****
 30 34 0 0 0
SMALL
GASTEIGER

@<TRIPOS>ATOM
      1 C         143.3236  136.6277  156.1884 C.2     1  UNL1        0.0866
      2 N         144.6274  137.2296  155.7549 N.2     1  UNL1       -0.1523
      3 N         144.5459  138.7126  155.9645 N.2     1  UNL1       -0.1523
      4 C         143.1915  139.0274  156.5275 C.2     1  UNL1        0.0858
      5 C         142.4362  137.7389  156.6658 C.3     1  UNL1        0.0883
      6 C         141.0820  138.0537  157.2288 C.3     1  UNL1        0.0384
      7 C         141.0004  139.5367  157.4384 C.ar    1  UNL1       -0.0205
      8 C         139.9073  140.4169  157.9679 C.ar    1  UNL1       -0.0071
      9 C         140.1180  141.8989  158.0640 C.ar    1  UNL1       -0.0065
     10 C         141.4218  142.5007  157.6305 C.ar    1  UNL1       -0.0029
     11 C         142.5149  141.6205  157.1010 C.ar    1  UNL1        0.0006
     12 C         142.3042  140.1385  157.0049 C.ar    1  UNL1        0.0117
     13 C         142.9575  132.7857  156.6009 C.ar    1  UNL1        0.0709
     14 C         143.6240  134.0833  156.9503 C.ar    1  UNL1        0.0165
     15 C         142.9693  135.1707  156.1509 C.ar    1  UNL1        0.0233
     16 C         141.8981  134.5452  155.3075 C.ar    1  UNL1        0.0373
     17 S         141.8908  133.0711  155.5857 S.2     1  UNL1       -0.0780
     18 C         143.6381  130.0927  157.7339 C.1     1  UNL1       -0.0859
     19 C         143.2978  131.4392  157.1675 C.1     1  UNL1       -0.0578
     20 C         143.9784  128.7461  158.3005 C.3     1  UNL1        0.0764
     21 C         142.2289  127.5958  159.8388 C.3     1  UNL1        0.0011
     22 C         143.5042  128.3679  159.6724 C.3     1  UNL1        0.0140
     23 C         139.0249  142.7791  158.5935 C.3     1  UNL1        0.0992
     24 N         139.0840  143.2810  160.0058 N.3     1  UNL1       -0.2665
     25 C         138.2252  142.6512  161.0622 C.3     1  UNL1        0.0899
     26 C         138.2843  143.1530  162.4745 C.3     1  UNL1        0.0897
     27 N         139.2023  144.2847  162.8305 N.3     1  UNL1       -0.2691
     28 C         139.2615  144.7865  164.2428 C.3     1  UNL1        0.0897
     29 C         140.0612  144.9144  161.7742 C.3     1  UNL1        0.0897
     30 C         140.0020  144.4125  160.3619 C.3     1  UNL1        0.0899
@<TRIPOS>BOND
     1    21    22    1
     2    22    20    1
     3    20    18    1
     4    18    19    3
     5    19    13    1
     6    13    14   ar
     7    14    15   ar
     8    15     1    1
     9     1     2    2
    10     2     3    1
    11     3     4    2
    12     4     5    1
    13     5     6    1
    14     6     7    1
    15     7     8   ar
    16     8     9   ar
    17     9    23    1
    18    23    24    1
    19    24    25    1
    20    25    26    1
    21    26    27    1
    22    27    28    1
    23    27    29    1
    24    29    30    1
    25     9    10   ar
    26    10    11   ar
    27    11    12   ar
    28    15    16   ar
    29    16    17   ar
    30    17    13   ar
    31     5     1    1
    32    12     7   ar
    33    12     4    1
    34    30    24    1
