@<TRIPOS>MOLECULE
*****
 39 43 0 0 0
SMALL
GASTEIGER

@<TRIPOS>ATOM
      1 C         143.6036  137.5371  156.0644 C.ar    1  UNL1        0.0830
      2 C         144.5519  138.0808  155.0373 C.ar    1  UNL1        0.0193
      3 C         145.1564  139.4413  155.2202 C.ar    1  UNL1        0.0074
      4 C         144.8125  140.2582  156.4303 C.ar    1  UNL1        0.0676
      5 C         145.4170  141.6188  156.6133 C.ar    1  UNL1        0.1376
      6 N         145.0732  142.4357  157.8234 N.ar    1  UNL1       -0.1986
      7 C         144.1248  141.8920  158.8506 C.ar    1  UNL1        0.2227
      8 N         143.5204  140.5315  158.6676 N.ar    1  UNL1       -0.1944
      9 C         143.8642  139.7146  157.4575 C.ar    1  UNL1        0.1678
     10 N         143.2598  138.3540  157.2746 N.ar    1  UNL1       -0.2264
     11 N         146.3653  142.1624  155.5861 N.pl3   1  UNL1       -0.2897
     12 C         147.8259  141.8294  155.6630 C.3     1  UNL1        0.1242
     13 C         148.7742  142.3731  154.6357 C.3     1  UNL1        0.1636
     14 O         148.2620  143.2497  153.5317 O.3     1  UNL1       -0.3502
     15 C         146.8014  143.5828  153.4548 C.3     1  UNL1        0.1618
     16 C         145.8531  143.0392  154.4819 C.3     1  UNL1        0.1038
     17 C         144.3926  143.3722  154.4051 C.3     1  UNL1        0.0241
     18 N         143.7810  142.7089  160.0607 N.pl3   1  UNL1       -0.2747
     19 C         144.7220  142.7529  161.2281 C.3     1  UNL1        0.1256
     20 C         144.3781  143.5698  162.4382 C.3     1  UNL1        0.1637
     21 O         143.0933  144.3428  162.4810 O.3     1  UNL1       -0.3502
     22 C         142.1524  144.2988  161.3137 C.3     1  UNL1        0.1619
     23 C         142.4962  143.4819  160.1035 C.3     1  UNL1        0.1052
     24 C         141.5553  143.4380  158.9362 C.3     1  UNL1        0.0242
     25 C         143.1408  133.5965  156.1524 C.ar    1  UNL1        0.0875
     26 C         143.7453  134.9571  156.3353 C.ar    1  UNL1        0.0091
     27 C         142.9991  136.1765  155.8815 C.ar    1  UNL1        0.0180
     28 C         141.6483  136.0354  155.2447 C.ar    1  UNL1        0.0046
     29 C         141.0438  134.6749  155.0618 C.ar    1  UNL1        0.0373
     30 C         141.7900  133.4554  155.5157 C.ar    1  UNL1        0.1486
     31 C         143.9742  130.1746  157.9817 C.3     1  UNL1        0.1109
     32 N         143.2279  131.3941  157.5278 N.am    1  UNL1       -0.2991
     33 C         143.8871  132.3770  156.6063 C.2     1  UNL1        0.2488
     34 O         145.2925  132.1406  156.1385 O.2     1  UNL1       -0.2700
     35 H         142.3055  131.5493  157.8348 H       1  UNL1        0.1498
     36 O         141.1855  132.0949  155.3327 O.3     1  UNL1       -0.4235
     37 C         140.8323  131.6098  153.9580 C.3     1  UNL1        0.5087
     38 F         139.6957  130.6491  153.7707 F       1  UNL1       -0.1550
     39 F         141.6157  132.0854  152.7705 F       1  UNL1       -0.1550
@<TRIPOS>BOND
     1    31    32    1
     2    32    33   am
     3    33    34    2
     4    33    25    1
     5    25    26   ar
     6    26    27   ar
     7    27     1    1
     8     1     2   ar
     9     2     3   ar
    10     3     4   ar
    11     4     5   ar
    12     5    11    1
    13    11    12    1
    14    12    13    1
    15    13    14    1
    16    14    15    1
    17    15    16    1
    18    16    17    1
    19     5     6   ar
    20     6     7   ar
    21     7    18    1
    22    18    19    1
    23    19    20    1
    24    20    21    1
    25    21    22    1
    26    22    23    1
    27    23    24    1
    28     7     8   ar
    29     8     9   ar
    30     9    10   ar
    31    27    28   ar
    32    28    29   ar
    33    29    30   ar
    34    30    36    1
    35    36    37    1
    36    37    38    1
    37    37    39    1
    38    30    25   ar
    39    10     1   ar
    40     9     4   ar
    41    16    11    1
    42    23    18    1
    43    32    35    1
@<TRIPOS>MOLECULE
*****
 39 43 0 0 0
SMALL
GASTEIGER

@<TRIPOS>ATOM
      1 C         142.9637  137.2037  157.0945 C.ar    1  UNL1        0.0830
      2 C         142.5901  137.6784  158.4675 C.ar    1  UNL1        0.0193
      3 C         142.8616  139.0977  158.8699 C.ar    1  UNL1        0.0074
      4 C         143.5066  140.0422  157.8995 C.ar    1  UNL1        0.0676
      5 C         143.7780  141.4615  158.3020 C.ar    1  UNL1        0.1376
      6 N         144.4230  142.4060  157.3315 N.ar    1  UNL1       -0.1986
      7 C         144.7966  141.9313  155.9585 C.ar    1  UNL1        0.2227
      8 N         144.5251  140.5120  155.5560 N.ar    1  UNL1       -0.1944
      9 C         143.8801  139.5675  156.5265 C.ar    1  UNL1        0.1678
     10 N         143.6087  138.1483  156.1240 N.ar    1  UNL1       -0.2264
     11 N         143.4044  141.9362  159.6750 N.pl3   1  UNL1       -0.2897
     12 C         144.3932  141.8352  160.7983 C.3     1  UNL1        0.1242
     13 C         144.0196  142.3099  162.1714 C.3     1  UNL1        0.1636
     14 O         142.6572  142.8857  162.4209 O.3     1  UNL1       -0.3502
     15 C         141.6684  142.9867  161.2975 C.3     1  UNL1        0.1618
     16 C         142.0419  142.5120  159.9246 C.3     1  UNL1        0.1038
     17 C         141.0531  142.6130  158.8012 C.3     1  UNL1        0.0241
     18 N         145.4416  142.8758  154.9880 N.pl3   1  UNL1       -0.2747
     19 C         144.5913  143.7478  154.1124 C.3     1  UNL1        0.1256
     20 C         145.2363  144.6923  153.1419 C.3     1  UNL1        0.1637
     21 O         146.7316  144.7649  153.0471 O.3     1  UNL1       -0.3502
     22 C         147.5818  143.8929  153.9227 C.3     1  UNL1        0.1619
     23 C         146.9368  142.9483  154.8932 C.3     1  UNL1        0.1052
     24 C         147.7870  142.0764  155.7688 C.3     1  UNL1        0.0242
     25 C         143.2196  133.2484  156.8934 C.ar    1  UNL1        0.0875
     26 C         143.4910  134.6677  157.2960 C.ar    1  UNL1        0.0091
     27 C         142.6923  135.7844  156.6920 C.ar    1  UNL1        0.0180
     28 C         141.6220  135.4819  155.6854 C.ar    1  UNL1        0.0046
     29 C         141.3506  134.0627  155.2829 C.ar    1  UNL1        0.0373
     30 C         142.1494  132.9459  155.8869 C.ar    1  UNL1        0.1486
     31 C         144.1776  129.6794  158.3405 C.3     1  UNL1        0.1109
     32 N         143.3788  130.7961  157.7365 N.am    1  UNL1       -0.2991
     33 C         144.0184  132.1317  157.4974 C.2     1  UNL1        0.2488
     34 O         145.4567  132.3505  157.8623 O.2     1  UNL1       -0.2700
     35 H         142.4348  130.6524  157.4969 H       1  UNL1        0.1498
     36 O         141.8779  131.5267  155.4843 O.3     1  UNL1       -0.4235
     37 C         140.7774  131.2202  154.5123 C.3     1  UNL1        0.5087
     38 F         139.4608  130.7009  155.0094 F       1  UNL1       -0.1550
     39 F         140.9933  131.4330  153.0433 F       1  UNL1       -0.1550
@<TRIPOS>BOND
     1    31    32    1
     2    32    33   am
     3    33    34    2
     4    33    25    1
     5    25    26   ar
     6    26    27   ar
     7    27     1    1
     8     1     2   ar
     9     2     3   ar
    10     3     4   ar
    11     4     5   ar
    12     5    11    1
    13    11    12    1
    14    12    13    1
    15    13    14    1
    16    14    15    1
    17    15    16    1
    18    16    17    1
    19     5     6   ar
    20     6     7   ar
    21     7    18    1
    22    18    19    1
    23    19    20    1
    24    20    21    1
    25    21    22    1
    26    22    23    1
    27    23    24    1
    28     7     8   ar
    29     8     9   ar
    30     9    10   ar
    31    27    28   ar
    32    28    29   ar
    33    29    30   ar
    34    30    36    1
    35    36    37    1
    36    37    38    1
    37    37    39    1
    38    30    25   ar
    39    10     1   ar
    40     9     4   ar
    41    16    11    1
    42    23    18    1
    43    32    35    1
@<TRIPOS>MOLECULE
*****
 39 43 0 0 0
SMALL
GASTEIGER

@<TRIPOS>ATOM
      1 C         143.3514  137.1521  156.2853 C.ar    1  UNL1        0.0830
      2 C         144.1940  137.8288  155.2451 C.ar    1  UNL1        0.0193
      3 C         144.6409  139.2462  155.4477 C.ar    1  UNL1        0.0074
      4 C         144.2453  139.9870  156.6906 C.ar    1  UNL1        0.0676
      5 C         144.6923  141.4045  156.8933 C.ar    1  UNL1        0.1376
      6 N         144.2967  142.1452  158.1362 N.ar    1  UNL1       -0.1986
      7 C         143.4541  141.4684  159.1764 C.ar    1  UNL1        0.2227
      8 N         143.0071  140.0510  158.9738 N.ar    1  UNL1       -0.1944
      9 C         143.4028  139.3103  157.7309 C.ar    1  UNL1        0.1678
     10 N         142.9558  137.8929  157.5282 N.ar    1  UNL1       -0.2264
     11 N         145.5349  142.0811  155.8530 N.pl3   1  UNL1       -0.2897
     12 C         147.0279  141.9412  155.8898 C.3     1  UNL1        0.1242
     13 C         147.8705  142.6179  154.8495 C.3     1  UNL1        0.1636
     14 O         147.2200  143.4345  153.7725 O.3     1  UNL1       -0.3502
     15 C         145.7270  143.5745  153.7357 C.3     1  UNL1        0.1618
     16 C         144.8845  142.8978  154.7759 C.3     1  UNL1        0.1038
     17 C         143.3915  143.0378  154.7392 C.3     1  UNL1        0.0241
     18 N         143.0585  142.2092  160.4193 N.pl3   1  UNL1       -0.2747
     19 C         142.1253  143.3801  160.3296 C.3     1  UNL1        0.1256
     20 C         141.7297  144.1209  161.5725 C.3     1  UNL1        0.1637
     21 O         142.2673  143.6906  162.9051 O.3     1  UNL1       -0.3502
     22 C         143.2004  142.5197  162.9948 C.3     1  UNL1        0.1619
     23 C         143.5960  141.7790  161.7519 C.3     1  UNL1        0.1052
     24 C         144.5292  140.6081  161.8417 C.3     1  UNL1        0.0242
     25 C         143.3085  133.1846  156.3729 C.ar    1  UNL1        0.0875
     26 C         143.7555  134.6021  156.5755 C.ar    1  UNL1        0.0091
     27 C         142.9044  135.7346  156.0827 C.ar    1  UNL1        0.0180
     28 C         141.6063  135.4498  155.3872 C.ar    1  UNL1        0.0046
     29 C         141.1592  134.0324  155.1845 C.ar    1  UNL1        0.0373
     30 C         142.0104  132.8998  155.6774 C.ar    1  UNL1        0.1486
     31 C         144.4504  129.9314  158.3381 C.3     1  UNL1        0.1109
     32 N         143.5993  131.0639  157.8453 N.am    1  UNL1       -0.2991
     33 C         144.1596  132.0521  156.8657 C.2     1  UNL1        0.2488
     34 O         145.5711  131.9077  156.3790 O.2     1  UNL1       -0.2700
     35 H         142.6729  131.1587  158.1647 H       1  UNL1        0.1498
     36 O         141.5634  131.4824  155.4747 O.3     1  UNL1       -0.4235
     37 C         140.4472  131.1771  154.5203 C.3     1  UNL1        0.5087
     38 F         139.1923  130.5235  155.0182 F       1  UNL1       -0.1550
     39 F         140.5859  131.5256  153.0680 F       1  UNL1       -0.1550
@<TRIPOS>BOND
     1    31    32    1
     2    32    33   am
     3    33    34    2
     4    33    25    1
     5    25    26   ar
     6    26    27   ar
     7    27     1    1
     8     1     2   ar
     9     2     3   ar
    10     3     4   ar
    11     4     5   ar
    12     5    11    1
    13    11    12    1
    14    12    13    1
    15    13    14    1
    16    14    15    1
    17    15    16    1
    18    16    17    1
    19     5     6   ar
    20     6     7   ar
    21     7    18    1
    22    18    19    1
    23    19    20    1
    24    20    21    1
    25    21    22    1
    26    22    23    1
    27    23    24    1
    28     7     8   ar
    29     8     9   ar
    30     9    10   ar
    31    27    28   ar
    32    28    29   ar
    33    29    30   ar
    34    30    36    1
    35    36    37    1
    36    37    38    1
    37    37    39    1
    38    30    25   ar
    39    10     1   ar
    40     9     4   ar
    41    16    11    1
    42    23    18    1
    43    32    35    1
@<TRIPOS>MOLECULE
*****
 39 43 0 0 0
SMALL
GASTEIGER

@<TRIPOS>ATOM
      1 C         143.2515  137.5410  156.4446 C.ar    1  UNL1        0.0830
      2 C         142.5714  138.3340  157.5209 C.ar    1  UNL1        0.0193
      3 C         143.0552  139.7139  157.8551 C.ar    1  UNL1        0.0074
      4 C         144.2192  140.3008  157.1130 C.ar    1  UNL1        0.0676
      5 C         144.7031  141.6808  157.4473 C.ar    1  UNL1        0.1376
      6 N         145.8670  142.2677  156.7052 N.ar    1  UNL1       -0.1986
      7 C         146.5472  141.4746  155.6288 C.ar    1  UNL1        0.2227
      8 N         146.0633  140.0947  155.2946 N.ar    1  UNL1       -0.1944
      9 C         144.8993  139.5078  156.0367 C.ar    1  UNL1        0.1678
     10 N         144.4155  138.1279  155.7025 N.ar    1  UNL1       -0.2264
     11 N         144.0229  142.4738  158.5237 N.pl3   1  UNL1       -0.2897
     12 C         144.4690  142.3397  159.9495 C.3     1  UNL1        0.1242
     13 C         143.7888  143.1328  161.0259 C.3     1  UNL1        0.1636
     14 O         142.6626  144.0598  160.6763 O.3     1  UNL1       -0.3502
     15 C         142.2165  144.1939  159.2505 C.3     1  UNL1        0.1618
     16 C         142.8967  143.4009  158.1742 C.3     1  UNL1        0.1038
     17 C         142.4506  143.5349  156.7483 C.3     1  UNL1        0.0241
     18 N         147.7112  142.0615  154.8867 N.pl3   1  UNL1       -0.2747
     19 C         149.1054  141.6005  155.1930 C.3     1  UNL1        0.1256
     20 C         150.2694  142.1874  154.4509 C.3     1  UNL1        0.1637
     21 O         150.0391  143.2352  153.4025 O.3     1  UNL1       -0.3502
     22 C         148.6449  143.6962  153.0963 C.3     1  UNL1        0.1619
     23 C         147.4810  143.1093  153.8384 C.3     1  UNL1        0.1052
     24 C         146.0868  143.5702  153.5321 C.3     1  UNL1        0.0242
     25 C         143.0737  133.5831  156.2127 C.ar    1  UNL1        0.0875
     26 C         143.5576  134.9631  156.5469 C.ar    1  UNL1        0.0091
     27 C         142.7677  136.1611  156.1103 C.ar    1  UNL1        0.0180
     28 C         141.4939  135.9792  155.3393 C.ar    1  UNL1        0.0046
     29 C         141.0100  134.5994  155.0050 C.ar    1  UNL1        0.0373
     30 C         141.8000  133.4012  155.4417 C.ar    1  UNL1        0.1486
     31 C         144.0004  130.1180  157.9108 C.3     1  UNL1        0.1109
     32 N         143.2105  131.3160  157.4742 N.am    1  UNL1       -0.2991
     33 C         143.8637  132.3851  156.6493 C.2     1  UNL1        0.2488
     34 O         145.3068  132.2562  156.2612 O.2     1  UNL1       -0.2700
     35 H         142.2633  131.4006  157.7289 H       1  UNL1        0.1498
     36 O         141.3161  132.0214  155.1074 O.3     1  UNL1       -0.4235
     37 C         141.7546  131.3608  153.8341 C.3     1  UNL1        0.5087
     38 F         140.8422  131.3467  152.6436 F       1  UNL1       -0.1550
     39 F         143.1055  130.7143  153.7512 F       1  UNL1       -0.1550
@<TRIPOS>BOND
     1    31    32    1
     2    32    33   am
     3    33    34    2
     4    33    25    1
     5    25    26   ar
     6    26    27   ar
     7    27     1    1
     8     1     2   ar
     9     2     3   ar
    10     3     4   ar
    11     4     5   ar
    12     5    11    1
    13    11    12    1
    14    12    13    1
    15    13    14    1
    16    14    15    1
    17    15    16    1
    18    16    17    1
    19     5     6   ar
    20     6     7   ar
    21     7    18    1
    22    18    19    1
    23    19    20    1
    24    20    21    1
    25    21    22    1
    26    22    23    1
    27    23    24    1
    28     7     8   ar
    29     8     9   ar
    30     9    10   ar
    31    27    28   ar
    32    28    29   ar
    33    29    30   ar
    34    30    36    1
    35    36    37    1
    36    37    38    1
    37    37    39    1
    38    30    25   ar
    39    10     1   ar
    40     9     4   ar
    41    16    11    1
    42    23    18    1
    43    32    35    1
@<TRIPOS>MOLECULE
*****
 39 43 0 0 0
SMALL
GASTEIGER

@<TRIPOS>ATOM
      1 C         140.1958  140.8065  163.0570 C.ar    1  UNL1        0.0830
      2 C         140.3972  142.2287  162.6247 C.ar    1  UNL1        0.0193
      3 C         140.5655  142.5537  161.1701 C.ar    1  UNL1        0.0074
      4 C         140.5323  141.4565  160.1477 C.ar    1  UNL1        0.0676
      5 C         140.7007  141.7816  158.6930 C.ar    1  UNL1        0.1376
      6 N         140.6675  140.6845  157.6706 N.ar    1  UNL1       -0.1986
      7 C         140.4661  139.2623  158.1030 C.ar    1  UNL1        0.2227
      8 N         140.2978  138.9373  159.5576 N.ar    1  UNL1       -0.1944
      9 C         140.3309  140.0344  160.5800 C.ar    1  UNL1        0.1678
     10 N         140.1626  139.7094  162.0346 N.ar    1  UNL1       -0.2264
     11 N         140.9021  143.2037  158.2607 N.pl3   1  UNL1       -0.2897
     12 C         139.7189  144.0539  157.9039 C.3     1  UNL1        0.1242
     13 C         139.9204  145.4762  157.4716 C.3     1  UNL1        0.1636
     14 O         141.3050  146.0481  157.3962 O.3     1  UNL1       -0.3502
     15 C         142.4882  145.1979  157.7530 C.3     1  UNL1        0.1618
     16 C         142.2867  143.7758  158.1852 C.3     1  UNL1        0.1038
     17 C         143.4699  142.9256  158.5420 C.3     1  UNL1        0.0241
     18 N         140.4329  138.1652  157.0806 N.pl3   1  UNL1       -0.2747
     19 C         139.2528  138.0289  156.1647 C.3     1  UNL1        0.1256
     20 C         139.2197  136.9318  155.1423 C.3     1  UNL1        0.1637
     21 O         140.3667  135.9709  155.0359 O.3     1  UNL1       -0.3502
     22 C         141.5467  136.1072  155.9518 C.3     1  UNL1        0.1619
     23 C         141.5798  137.2043  156.9742 C.3     1  UNL1        0.1052
     24 C         142.7598  137.3405  157.8901 C.3     1  UNL1        0.0242
     25 C         140.9842  140.4077  166.9261 C.ar    1  UNL1        0.0875
     26 C         141.1525  140.7328  165.4714 C.ar    1  UNL1        0.0091
     27 C         140.0275  140.4814  164.5117 C.ar    1  UNL1        0.0180
     28 C         138.7341  139.9050  165.0066 C.ar    1  UNL1        0.0046
     29 C         138.5658  139.5799  166.4612 C.ar    1  UNL1        0.0373
     30 C         139.6908  139.8313  167.4210 C.ar    1  UNL1        0.1486
     31 C         143.4845  142.2966  169.3613 C.3     1  UNL1        0.1109
     32 N         142.3594  142.0452  168.4016 N.am    1  UNL1       -0.2991
     33 C         142.1092  140.6591  167.8858 C.2     1  UNL1        0.2488
     34 O         142.9840  139.5244  168.3297 O.2     1  UNL1       -0.2700
     35 H         141.7853  142.7900  168.1103 H       1  UNL1        0.1498
     36 O         139.5225  139.5062  168.8756 O.3     1  UNL1       -0.4235
     37 C         138.8119  140.4676  169.7816 C.3     1  UNL1        0.5087
     38 F         137.5450  140.0532  170.4694 F       1  UNL1       -0.1550
     39 F         139.3683  141.8434  169.9998 F       1  UNL1       -0.1550
@<TRIPOS>BOND
     1    31    32    1
     2    32    33   am
     3    33    34    2
     4    33    25    1
     5    25    26   ar
     6    26    27   ar
     7    27     1    1
     8     1     2   ar
     9     2     3   ar
    10     3     4   ar
    11     4     5   ar
    12     5    11    1
    13    11    12    1
    14    12    13    1
    15    13    14    1
    16    14    15    1
    17    15    16    1
    18    16    17    1
    19     5     6   ar
    20     6     7   ar
    21     7    18    1
    22    18    19    1
    23    19    20    1
    24    20    21    1
    25    21    22    1
    26    22    23    1
    27    23    24    1
    28     7     8   ar
    29     8     9   ar
    30     9    10   ar
    31    27    28   ar
    32    28    29   ar
    33    29    30   ar
    34    30    36    1
    35    36    37    1
    36    37    38    1
    37    37    39    1
    38    30    25   ar
    39    10     1   ar
    40     9     4   ar
    41    16    11    1
    42    23    18    1
    43    32    35    1
@<TRIPOS>MOLECULE
*****
 39 43 0 0 0
SMALL
GASTEIGER

@<TRIPOS>ATOM
      1 C         142.0640  141.1577  160.1558 C.ar    1  UNL1        0.0830
      2 C         142.8121  142.0342  159.1957 C.ar    1  UNL1        0.0193
      3 C         143.3864  141.4507  157.9389 C.ar    1  UNL1        0.0074
      4 C         143.2126  139.9906  157.6422 C.ar    1  UNL1        0.0676
      5 C         143.7870  139.4071  156.3853 C.ar    1  UNL1        0.1376
      6 N         143.6131  137.9471  156.0887 N.ar    1  UNL1       -0.1986
      7 C         142.8649  137.0705  157.0489 C.ar    1  UNL1        0.2227
      8 N         142.2906  137.6540  158.3057 N.ar    1  UNL1       -0.1944
      9 C         142.4645  139.1141  158.6024 C.ar    1  UNL1        0.1678
     10 N         141.8901  139.6976  159.8592 N.ar    1  UNL1       -0.2264
     11 N         144.5351  140.2837  155.4252 N.pl3   1  UNL1       -0.2897
     12 C         146.0018  140.5295  155.6208 C.3     1  UNL1        0.1242
     13 C         146.7500  141.4061  154.6606 C.3     1  UNL1        0.1636
     14 O         146.0314  142.0368  153.5048 O.3     1  UNL1       -0.3502
     15 C         144.5647  141.7909  153.3092 C.3     1  UNL1        0.1618
     16 C         143.8165  140.9144  154.2693 C.3     1  UNL1        0.1038
     17 C         142.3498  140.6685  154.0737 C.3     1  UNL1        0.0241
     18 N         142.6911  135.6105  156.7522 N.pl3   1  UNL1       -0.2747
     19 C         143.5246  134.5939  157.4748 C.3     1  UNL1        0.1256
     20 C         143.3507  133.1338  157.1781 C.3     1  UNL1        0.1637
     21 O         142.3435  132.6903  156.1589 O.3     1  UNL1       -0.3502
     22 C         141.5101  133.7069  155.4364 C.3     1  UNL1        0.1619
     23 C         141.6839  135.1669  155.7330 C.3     1  UNL1        0.1052
     24 C         140.8505  136.1835  155.0105 C.3     1  UNL1        0.0242
     25 C         140.0181  141.4954  163.5398 C.ar    1  UNL1        0.0875
     26 C         140.5924  140.9118  162.2829 C.ar    1  UNL1        0.0091
     27 C         141.4896  141.7412  161.4127 C.ar    1  UNL1        0.0180
     28 C         141.8125  143.1541  161.7994 C.ar    1  UNL1        0.0046
     29 C         141.2382  143.7376  163.0562 C.ar    1  UNL1        0.0373
     30 C         140.3409  142.9082  163.9264 C.ar    1  UNL1        0.1486
     31 C         138.6541  139.4732  166.6702 C.3     1  UNL1        0.1109
     32 N         139.5512  140.3025  165.8001 N.am    1  UNL1       -0.2991
     33 C         139.1209  140.6660  164.4099 C.2     1  UNL1        0.2488
     34 O         137.7933  140.2001  163.8898 O.2     1  UNL1       -0.2700
     35 H         140.4226  140.6083  166.1414 H       1  UNL1        0.1498
     36 O         139.7666  143.4918  165.1832 O.3     1  UNL1       -0.4235
     37 C         138.5841  144.4118  165.1109 C.3     1  UNL1        0.5087
     38 F         137.5971  144.2777  163.9894 F       1  UNL1       -0.1550
     39 F         138.3887  145.4659  166.1599 F       1  UNL1       -0.1550
@<TRIPOS>BOND
     1    31    32    1
     2    32    33   am
     3    33    34    2
     4    33    25    1
     5    25    26   ar
     6    26    27   ar
     7    27     1    1
     8     1     2   ar
     9     2     3   ar
    10     3     4   ar
    11     4     5   ar
    12     5    11    1
    13    11    12    1
    14    12    13    1
    15    13    14    1
    16    14    15    1
    17    15    16    1
    18    16    17    1
    19     5     6   ar
    20     6     7   ar
    21     7    18    1
    22    18    19    1
    23    19    20    1
    24    20    21    1
    25    21    22    1
    26    22    23    1
    27    23    24    1
    28     7     8   ar
    29     8     9   ar
    30     9    10   ar
    31    27    28   ar
    32    28    29   ar
    33    29    30   ar
    34    30    36    1
    35    36    37    1
    36    37    38    1
    37    37    39    1
    38    30    25   ar
    39    10     1   ar
    40     9     4   ar
    41    16    11    1
    42    23    18    1
    43    32    35    1
@<TRIPOS>MOLECULE
*****
 39 43 0 0 0
SMALL
GASTEIGER

@<TRIPOS>ATOM
      1 C         142.5327  137.0199  156.9831 C.ar    1  UNL1        0.0830
      2 C         142.0803  138.0988  156.0444 C.ar    1  UNL1        0.0193
      3 C         142.0315  139.5245  156.5081 C.ar    1  UNL1        0.0074
      4 C         142.4353  139.8712  157.9105 C.ar    1  UNL1        0.0676
      5 C         142.3866  141.2970  158.3742 C.ar    1  UNL1        0.1376
      6 N         142.7903  141.6438  159.7766 N.ar    1  UNL1       -0.1986
      7 C         143.2428  140.5648  160.7153 C.ar    1  UNL1        0.2227
      8 N         143.2916  139.1391  160.2516 N.ar    1  UNL1       -0.1944
      9 C         142.8878  138.7923  158.8492 C.ar    1  UNL1        0.1678
     10 N         142.9365  137.3667  158.3855 N.ar    1  UNL1       -0.2264
     11 N         141.9341  142.3759  157.4355 N.pl3   1  UNL1       -0.2897
     12 C         142.9339  143.0874  156.5729 C.3     1  UNL1        0.1242
     13 C         142.4813  144.1664  155.6342 C.3     1  UNL1        0.1636
     14 O         141.0290  144.5338  155.5581 O.3     1  UNL1       -0.3502
     15 C         140.0292  143.8222  156.4207 C.3     1  UNL1        0.1618
     16 C         140.4817  142.7433  157.3594 C.3     1  UNL1        0.1038
     17 C         139.4819  142.0318  158.2220 C.3     1  UNL1        0.0241
     18 N         143.6466  140.9115  162.1177 N.pl3   1  UNL1       -0.2747
     19 C         145.0462  141.3692  162.4038 C.3     1  UNL1        0.1256
     20 C         145.4500  141.7160  163.8062 C.3     1  UNL1        0.1637
     21 O         144.4541  141.6050  164.9225 O.3     1  UNL1       -0.3502
     22 C         143.0546  141.1473  164.6364 C.3     1  UNL1        0.1619
     23 C         142.6509  140.8006  163.2340 C.3     1  UNL1        0.1052
     24 C         141.2514  140.3429  162.9479 C.3     1  UNL1        0.0242
     25 C         143.4338  133.1583  156.8198 C.ar    1  UNL1        0.0875
     26 C         143.3850  134.5841  157.2835 C.ar    1  UNL1        0.0091
     27 C         142.5815  135.5942  156.5194 C.ar    1  UNL1        0.0180
     28 C         141.8266  135.1786  155.2916 C.ar    1  UNL1        0.0046
     29 C         141.8753  133.7530  154.8279 C.ar    1  UNL1        0.0373
     30 C         142.6789  132.7428  155.5920 C.ar    1  UNL1        0.1486
     31 C         144.5184  129.7433  158.5258 C.3     1  UNL1        0.1109
     32 N         143.7149  130.7534  157.7617 N.am    1  UNL1       -0.2991
     33 C         144.2373  132.1482  157.5839 C.2     1  UNL1        0.2488
     34 O         145.5633  132.5329  158.1702 O.2     1  UNL1       -0.2700
     35 H         142.8446  130.5009  157.3769 H       1  UNL1        0.1498
     36 O         142.7276  131.3171  155.1283 O.3     1  UNL1       -0.4235
     37 C         143.8092  130.8702  154.1899 C.3     1  UNL1        0.5087
     38 F         144.9948  130.1170  154.7163 F       1  UNL1       -0.1550
     39 F         143.7051  131.1764  152.7252 F       1  UNL1       -0.1550
@<TRIPOS>BOND
     1    31    32    1
     2    32    33   am
     3    33    34    2
     4    33    25    1
     5    25    26   ar
     6    26    27   ar
     7    27     1    1
     8     1     2   ar
     9     2     3   ar
    10     3     4   ar
    11     4     5   ar
    12     5    11    1
    13    11    12    1
    14    12    13    1
    15    13    14    1
    16    14    15    1
    17    15    16    1
    18    16    17    1
    19     5     6   ar
    20     6     7   ar
    21     7    18    1
    22    18    19    1
    23    19    20    1
    24    20    21    1
    25    21    22    1
    26    22    23    1
    27    23    24    1
    28     7     8   ar
    29     8     9   ar
    30     9    10   ar
    31    27    28   ar
    32    28    29   ar
    33    29    30   ar
    34    30    36    1
    35    36    37    1
    36    37    38    1
    37    37    39    1
    38    30    25   ar
    39    10     1   ar
    40     9     4   ar
    41    16    11    1
    42    23    18    1
    43    32    35    1
@<TRIPOS>MOLECULE
*****
 39 43 0 0 0
SMALL
GASTEIGER

@<TRIPOS>ATOM
      1 C         142.8051  140.0129  161.4015 C.ar    1  UNL1        0.0830
      2 C         143.3470  141.1929  160.6507 C.ar    1  UNL1        0.0193
      3 C         143.6626  141.0715  159.1893 C.ar    1  UNL1        0.0074
      4 C         143.4362  139.7699  158.4788 C.ar    1  UNL1        0.0676
      5 C         143.7518  139.6485  157.0174 C.ar    1  UNL1        0.1376
      6 N         143.5254  138.3470  156.3068 N.ar    1  UNL1       -0.1986
      7 C         142.9835  137.1669  157.0578 C.ar    1  UNL1        0.2227
      8 N         142.6679  137.2884  158.5191 N.ar    1  UNL1       -0.1944
      9 C         142.8943  138.5899  159.2296 C.ar    1  UNL1        0.1678
     10 N         142.5788  138.7114  160.6910 N.ar    1  UNL1       -0.2264
     11 N         144.2937  140.8285  156.2665 N.pl3   1  UNL1       -0.2897
     12 C         145.7743  141.0603  156.2010 C.3     1  UNL1        0.1242
     13 C         146.3162  142.2404  155.4501 C.3     1  UNL1        0.1636
     14 O         145.3775  143.1886  154.7648 O.3     1  UNL1       -0.3502
     15 C         143.8970  142.9569  154.8303 C.3     1  UNL1        0.1618
     16 C         143.3551  141.7769  155.5811 C.3     1  UNL1        0.1038
     17 C         141.8745  141.5451  155.6466 C.3     1  UNL1        0.0241
     18 N         142.7571  135.8654  156.3473 N.pl3   1  UNL1       -0.2747
     19 C         143.8202  134.8073  156.3635 C.3     1  UNL1        0.1256
     20 C         143.5939  133.5058  155.6530 C.3     1  UNL1        0.1637
     21 O         142.3044  133.2624  154.9262 O.3     1  UNL1       -0.3502
     22 C         141.2413  134.3205  154.9101 C.3     1  UNL1        0.1619
     23 C         141.4677  135.6220  155.6206 C.3     1  UNL1        0.1052
     24 C         140.4047  136.6801  155.6044 C.3     1  UNL1        0.0242
     25 C         141.0028  139.5183  164.9026 C.ar    1  UNL1        0.0875
     26 C         141.3184  139.3968  163.4412 C.ar    1  UNL1        0.0091
     27 C         142.4895  140.1344  162.8630 C.ar    1  UNL1        0.0180
     28 C         143.3452  140.9934  163.7461 C.ar    1  UNL1        0.0046
     29 C         143.0296  141.1149  165.2075 C.ar    1  UNL1        0.0373
     30 C         141.8584  140.3773  165.7858 C.ar    1  UNL1        0.1486
     31 C         137.7678  138.7183  167.0576 C.3     1  UNL1        0.1109
     32 N         138.9389  139.4558  166.4794 N.am    1  UNL1       -0.2991
     33 C         139.8317  138.7807  165.4808 C.2     1  UNL1        0.2488
     34 O         139.5533  137.3680  165.0604 O.2     1  UNL1       -0.2700
     35 H         139.1216  140.3830  166.7553 H       1  UNL1        0.1498
     36 O         141.5429  140.4988  167.2471 O.3     1  UNL1       -0.4235
     37 C         142.1519  139.5412  168.2280 C.3     1  UNL1        0.5087
     38 F         143.2391  138.6064  167.7874 F       1  UNL1       -0.1550
     39 F         141.6737  139.5184  169.6496 F       1  UNL1       -0.1550
@<TRIPOS>BOND
     1    31    32    1
     2    32    33   am
     3    33    34    2
     4    33    25    1
     5    25    26   ar
     6    26    27   ar
     7    27     1    1
     8     1     2   ar
     9     2     3   ar
    10     3     4   ar
    11     4     5   ar
    12     5    11    1
    13    11    12    1
    14    12    13    1
    15    13    14    1
    16    14    15    1
    17    15    16    1
    18    16    17    1
    19     5     6   ar
    20     6     7   ar
    21     7    18    1
    22    18    19    1
    23    19    20    1
    24    20    21    1
    25    21    22    1
    26    22    23    1
    27    23    24    1
    28     7     8   ar
    29     8     9   ar
    30     9    10   ar
    31    27    28   ar
    32    28    29   ar
    33    29    30   ar
    34    30    36    1
    35    36    37    1
    36    37    38    1
    37    37    39    1
    38    30    25   ar
    39    10     1   ar
    40     9     4   ar
    41    16    11    1
    42    23    18    1
    43    32    35    1
@<TRIPOS>MOLECULE
*****
 39 43 0 0 0
SMALL
GASTEIGER

@<TRIPOS>ATOM
      1 C         142.2234  136.4086  156.8727 C.ar    1  UNL1        0.0830
      2 C         141.2662  137.3741  156.2392 C.ar    1  UNL1        0.0193
      3 C         141.0710  138.7367  156.8353 C.ar    1  UNL1        0.0074
      4 C         141.8329  139.1336  158.0649 C.ar    1  UNL1        0.0676
      5 C         141.6376  140.4962  158.6610 C.ar    1  UNL1        0.1376
      6 N         142.3995  140.8932  159.8905 N.ar    1  UNL1       -0.1986
      7 C         143.3568  139.9275  160.5240 C.ar    1  UNL1        0.2227
      8 N         143.5520  138.5650  159.9280 N.ar    1  UNL1       -0.1944
      9 C         142.7901  138.1681  158.6984 C.ar    1  UNL1        0.1678
     10 N         142.9854  136.8055  158.1023 N.ar    1  UNL1       -0.2264
     11 N         140.6804  141.4618  158.0274 N.pl3   1  UNL1       -0.2897
     12 C         139.2412  141.4773  158.4498 C.3     1  UNL1        0.1242
     13 C         138.2840  142.4430  157.8163 C.3     1  UNL1        0.1636
     14 O         138.7660  143.3930  156.7604 O.3     1  UNL1       -0.3502
     15 C         140.2052  143.3775  156.3380 C.3     1  UNL1        0.1618
     16 C         141.1624  142.4120  156.9715 C.3     1  UNL1        0.1038
     17 C         142.6016  142.3964  156.5491 C.3     1  UNL1        0.0241
     18 N         144.1187  140.3245  161.7536 N.pl3   1  UNL1       -0.2747
     19 C         144.1876  139.3923  162.9268 C.3     1  UNL1        0.1256
     20 C         144.9496  139.7892  164.1564 C.3     1  UNL1        0.1637
     21 O         145.6426  141.1184  164.2128 O.3     1  UNL1       -0.3502
     22 C         145.5737  142.0505  163.0396 C.3     1  UNL1        0.1619
     23 C         144.8117  141.6536  161.8101 C.3     1  UNL1        0.1052
     24 C         144.7428  142.5857  160.6369 C.3     1  UNL1        0.0242
     25 C         143.3127  132.6139  156.4668 C.ar    1  UNL1        0.0875
     26 C         143.1174  133.9765  157.0629 C.ar    1  UNL1        0.0091
     27 C         142.4187  135.0460  156.2767 C.ar    1  UNL1        0.0180
     28 C         141.9153  134.7529  154.8944 C.ar    1  UNL1        0.0046
     29 C         142.1106  133.3903  154.2983 C.ar    1  UNL1        0.0373
     30 C         142.8093  132.3208  155.0845 C.ar    1  UNL1        0.1486
     31 C         143.9600  129.2493  158.4693 C.3     1  UNL1        0.1109
     32 N         143.2613  130.3187  157.6831 N.am    1  UNL1       -0.2991
     33 C         144.0113  131.5445  157.2530 C.2     1  UNL1        0.2488
     34 O         145.4600  131.7009  157.6092 O.2     1  UNL1       -0.2700
     35 H         142.3105  130.2161  157.4493 H       1  UNL1        0.1498
     36 O         143.0046  130.9583  154.4885 O.3     1  UNL1       -0.4235
     37 C         143.7267  130.8075  153.1824 C.3     1  UNL1        0.5087
     38 F         143.2427  131.5437  151.9684 F       1  UNL1       -0.1550
     39 F         144.9327  129.9205  153.0903 F       1  UNL1       -0.1550
@<TRIPOS>BOND
     1    31    32    1
     2    32    33   am
     3    33    34    2
     4    33    25    1
     5    25    26   ar
     6    26    27   ar
     7    27     1    1
     8     1     2   ar
     9     2     3   ar
    10     3     4   ar
    11     4     5   ar
    12     5    11    1
    13    11    12    1
    14    12    13    1
    15    13    14    1
    16    14    15    1
    17    15    16    1
    18    16    17    1
    19     5     6   ar
    20     6     7   ar
    21     7    18    1
    22    18    19    1
    23    19    20    1
    24    20    21    1
    25    21    22    1
    26    22    23    1
    27    23    24    1
    28     7     8   ar
    29     8     9   ar
    30     9    10   ar
    31    27    28   ar
    32    28    29   ar
    33    29    30   ar
    34    30    36    1
    35    36    37    1
    36    37    38    1
    37    37    39    1
    38    30    25   ar
    39    10     1   ar
    40     9     4   ar
    41    16    11    1
    42    23    18    1
    43    32    35    1
