@<TRIPOS>MOLECULE
*****
 44 46 0 0 0
SMALL
GASTEIGER

@<TRIPOS>ATOM
      1 C         142.3117  138.1245  157.6474 C.3     1  UNL1        0.1895
      2 C         145.5267  140.9141  156.1873 C.ar    1  UNL1        0.1247
      3 C         144.7206  141.2688  157.4015 C.ar    1  UNL1        0.0212
      4 C         143.6490  140.3389  157.8882 C.ar    1  UNL1        0.0182
      5 C         143.3834  139.0544  157.1607 C.ar    1  UNL1        0.0859
      6 N         144.1894  138.6997  155.9464 N.ar    1  UNL1       -0.2447
      7 C         145.2610  139.6296  155.4597 C.ar    1  UNL1        0.1168
      8 S         146.5983  141.8440  155.7006 S.O2    1  UNL1        0.0101
      9 O         146.4074  141.3328  154.3034 O.2     1  UNL1       -0.1686
     10 O         146.7893  142.3553  157.0978 O.2     1  UNL1       -0.1686
     11 C         148.5790  142.3519  154.0979 C.3     1  UNL1        0.0276
     12 C         147.6700  142.7739  155.2138 C.3     1  UNL1        0.1560
     13 N         141.6845  137.1429  156.7025 N.am    1  UNL1       -0.2934
     14 C         142.3269  135.8069  156.4733 C.2     1  UNL1        0.2291
     15 O         143.5965  135.4526  157.1891 O.2     1  UNL1       -0.2747
     16 H         140.8512  137.3755  156.2326 H       1  UNL1        0.1502
     17 C         141.6996  134.8253  155.5283 C.3     1  UNL1        0.1306
     18 C         142.2293  133.4247  155.4411 C.ar    1  UNL1        0.0682
     19 C         142.5979  132.8438  154.1081 C.ar    1  UNL1        0.0152
     20 C         143.1276  131.4432  154.0209 C.ar    1  UNL1        0.0028
     21 C         143.2887  130.6234  155.2668 C.ar    1  UNL1        0.0207
     22 C         142.9202  131.2042  156.5997 C.ar    1  UNL1        0.0985
     23 N         142.3904  132.6049  156.6869 N.ar    1  UNL1       -0.2477
     24 C         141.8673  138.1762  159.0791 C.2     1  UNL1        0.2499
     25 O         142.7019  137.5338  160.1472 O.2     1  UNL1       -0.2726
     26 N         140.5883  138.8704  159.4428 N.am    1  UNL1       -0.2823
     27 H         140.0405  139.2921  158.7418 H       1  UNL1        0.1549
     28 C         140.1438  138.9221  160.8745 C.ar    1  UNL1        0.0503
     29 C         140.7699  139.9048  161.8191 C.ar    1  UNL1        0.0144
     30 C         140.3255  139.9565  163.2509 C.ar    1  UNL1       -0.0002
     31 C         139.2550  139.0255  163.7380 C.ar    1  UNL1        0.0182
     32 C         138.6289  138.0427  162.7933 C.ar    1  UNL1       -0.0002
     33 C         139.0734  137.9911  161.3616 C.ar    1  UNL1        0.0144
     34 C         138.8106  139.0771  165.1697 C.3     1  UNL1        0.2827
     35 O         139.3628  137.7002  165.3908 O.3     1  UNL1       -0.3692
     36 H         139.2109  137.4348  166.3114 H       1  UNL1        0.2112
     37 C         138.3661  139.1288  166.6014 C.3     1  UNL1        0.4311
     38 F         137.9216  139.1804  168.0331 F       1  UNL1       -0.1669
     39 F         139.7921  139.2891  167.0382 F       1  UNL1       -0.1669
     40 F         137.4984  139.0385  166.4484 F       1  UNL1       -0.1669
     41 C         138.2583  140.4541  164.9486 C.3     1  UNL1        0.4311
     42 F         137.7061  141.8312  164.7275 F       1  UNL1       -0.1669
     43 F         137.6130  140.2229  164.3877 F       1  UNL1       -0.1669
     44 F         139.1273  141.3343  165.7973 F       1  UNL1       -0.1669
@<TRIPOS>BOND
     1    11    12    1
     2    12     8    1
     3     8     9    2
     4     8    10    2
     5     8     2    1
     6     2     3   ar
     7     3     4   ar
     8     4     5   ar
     9     5     1    1
    10     1    13    1
    11    13    14   am
    12    14    15    2
    13    14    17    1
    14    17    18    1
    15    18    19   ar
    16    19    20   ar
    17    20    21   ar
    18    21    22   ar
    19    22    23   ar
    20     1    24    1
    21    24    25    2
    22    24    26   am
    23    26    28    1
    24    28    29   ar
    25    29    30   ar
    26    30    31   ar
    27    31    34    1
    28    34    35    1
    29    34    37    1
    30    37    38    1
    31    37    39    1
    32    37    40    1
    33    34    41    1
    34    41    42    1
    35    41    43    1
    36    41    44    1
    37    31    32   ar
    38    32    33   ar
    39     5     6   ar
    40     6     7   ar
    41     7     2   ar
    42    23    18   ar
    43    33    28   ar
    44    13    16    1
    45    26    27    1
    46    35    36    1
@<TRIPOS>MOLECULE
*****
 44 46 0 0 0
SMALL
GASTEIGER

@<TRIPOS>ATOM
      1 C         141.6661  137.5758  156.4100 C.3     1  UNL1        0.1895
      2 C         143.4584  133.4811  155.8897 C.ar    1  UNL1        0.1247
      3 C         142.6411  134.0876  154.7878 C.ar    1  UNL1        0.0212
      4 C         142.0437  135.4525  154.9613 C.ar    1  UNL1        0.0182
      5 C         142.2635  136.2109  156.2366 C.ar    1  UNL1        0.0859
      6 N         143.0808  135.6044  157.3384 N.ar    1  UNL1       -0.2447
      7 C         143.6783  134.2395  157.1650 C.ar    1  UNL1        0.1168
      8 S         144.0559  132.1162  155.7162 S.O2    1  UNL1        0.0101
      9 O         143.3637  131.9814  154.3923 O.2     1  UNL1       -0.1686
     10 O         144.7481  132.2509  157.0401 O.2     1  UNL1       -0.1686
     11 C         144.4873  130.0194  154.2441 C.3     1  UNL1        0.0276
     12 C         144.6533  130.7513  155.5428 C.3     1  UNL1        0.1560
     13 N         140.7816  138.1485  155.3425 N.am    1  UNL1       -0.2934
     14 C         139.3312  137.7698  155.2872 C.2     1  UNL1        0.2291
     15 O         138.7654  136.8184  156.2995 O.2     1  UNL1       -0.2747
     16 H         141.1529  138.7729  154.6781 H       1  UNL1        0.1502
     17 C         138.4467  138.3426  154.2197 C.3     1  UNL1        0.1306
     18 C         137.3179  139.2576  154.5920 C.ar    1  UNL1        0.0682
     19 C         136.1709  139.4570  153.6461 C.ar    1  UNL1        0.0152
     20 C         135.0421  140.3720  154.0185 C.ar    1  UNL1        0.0028
     21 C         135.0603  141.0876  155.3367 C.ar    1  UNL1        0.0207
     22 C         136.2073  140.8881  156.2826 C.ar    1  UNL1        0.0985
     23 N         137.3361  139.9731  155.9102 N.ar    1  UNL1       -0.2477
     24 C         141.9531  138.3680  157.6509 C.2     1  UNL1        0.2499
     25 O         140.8245  138.8238  158.5277 O.2     1  UNL1       -0.2726
     26 N         143.3688  138.7045  158.0152 N.am    1  UNL1       -0.2823
     27 H         144.1095  138.4054  157.4398 H       1  UNL1        0.1549
     28 C         143.6558  139.4967  159.2562 C.ar    1  UNL1        0.0503
     29 C         143.8060  140.9870  159.1767 C.ar    1  UNL1        0.0144
     30 C         144.0930  141.7793  160.4177 C.ar    1  UNL1       -0.0002
     31 C         144.2299  141.0811  161.7382 C.ar    1  UNL1        0.0182
     32 C         144.0797  139.5907  161.8178 C.ar    1  UNL1       -0.0002
     33 C         143.7927  138.7986  160.5768 C.ar    1  UNL1        0.0144
     34 C         144.5169  141.8733  162.9792 C.3     1  UNL1        0.2827
     35 O         145.9293  142.0820  162.5193 O.3     1  UNL1       -0.3692
     36 H         146.4087  142.6100  163.1768 H       1  UNL1        0.2112
     37 C         144.8039  142.6654  164.2202 C.3     1  UNL1        0.4311
     38 F         145.0910  143.4576  165.4612 F       1  UNL1       -0.1669
     39 F         144.4650  143.9314  163.4905 F       1  UNL1       -0.1669
     40 F         145.0232  141.9805  164.7372 F       1  UNL1       -0.1669
     41 C         143.1045  141.6646  163.4391 C.3     1  UNL1        0.4311
     42 F         141.6921  141.4558  163.8991 F       1  UNL1       -0.1669
     43 F         142.7310  142.2805  162.9238 F       1  UNL1       -0.1669
     44 F         143.2128  140.5694  164.4584 F       1  UNL1       -0.1669
@<TRIPOS>BOND
     1    11    12    1
     2    12     8    1
     3     8     9    2
     4     8    10    2
     5     8     2    1
     6     2     3   ar
     7     3     4   ar
     8     4     5   ar
     9     5     1    1
    10     1    13    1
    11    13    14   am
    12    14    15    2
    13    14    17    1
    14    17    18    1
    15    18    19   ar
    16    19    20   ar
    17    20    21   ar
    18    21    22   ar
    19    22    23   ar
    20     1    24    1
    21    24    25    2
    22    24    26   am
    23    26    28    1
    24    28    29   ar
    25    29    30   ar
    26    30    31   ar
    27    31    34    1
    28    34    35    1
    29    34    37    1
    30    37    38    1
    31    37    39    1
    32    37    40    1
    33    34    41    1
    34    41    42    1
    35    41    43    1
    36    41    44    1
    37    31    32   ar
    38    32    33   ar
    39     5     6   ar
    40     6     7   ar
    41     7     2   ar
    42    23    18   ar
    43    33    28   ar
    44    13    16    1
    45    26    27    1
    46    35    36    1
@<TRIPOS>MOLECULE
*****
 44 46 0 0 0
SMALL
GASTEIGER

@<TRIPOS>ATOM
      1 C         142.8658  137.9950  157.7024 C.3     1  UNL1        0.1895
      2 C         143.8540  141.7944  155.5028 C.ar    1  UNL1        0.1247
      3 C         142.6154  141.0248  155.1514 C.ar    1  UNL1        0.0212
      4 C         142.2860  139.7583  155.8846 C.ar    1  UNL1        0.0182
      5 C         143.1952  139.2615  156.9692 C.ar    1  UNL1        0.0859
      6 N         144.4338  140.0310  157.3206 N.ar    1  UNL1       -0.2447
      7 C         144.7633  141.2975  156.5874 C.ar    1  UNL1        0.1168
      8 S         144.1835  143.0608  154.7696 S.O2    1  UNL1        0.0101
      9 O         142.9984  143.7326  155.3976 O.2     1  UNL1       -0.1686
     10 O         145.3685  142.3890  154.1416 O.2     1  UNL1       -0.1686
     11 C         145.9031  144.5561  153.5219 C.3     1  UNL1        0.0276
     12 C         144.5129  144.3273  154.0364 C.3     1  UNL1        0.1560
     13 N         143.0738  136.6671  157.0366 N.am    1  UNL1       -0.2934
     14 C         141.9337  135.9958  156.3297 C.2     1  UNL1        0.2291
     15 O         140.5857  136.6525  156.2886 O.2     1  UNL1       -0.2747
     16 H         143.9585  136.2361  157.0635 H       1  UNL1        0.1502
     17 C         142.1417  134.6679  155.6638 C.3     1  UNL1        0.1306
     18 C         142.9056  133.5867  156.3692 C.ar    1  UNL1        0.0682
     19 C         142.4979  132.1523  156.2069 C.ar    1  UNL1        0.0152
     20 C         143.2618  131.0711  156.9123 C.ar    1  UNL1        0.0028
     21 C         144.4334  131.4243  157.7799 C.ar    1  UNL1        0.0207
     22 C         144.8410  132.8587  157.9421 C.ar    1  UNL1        0.0985
     23 N         144.0771  133.9399  157.2367 N.ar    1  UNL1       -0.2477
     24 C         142.3285  138.0565  159.1015 C.2     1  UNL1        0.2499
     25 O         143.0397  137.3390  160.2103 O.2     1  UNL1       -0.2726
     26 N         141.0799  138.8354  159.3918 N.am    1  UNL1       -0.2823
     27 H         140.6130  139.3063  158.6641 H       1  UNL1        0.1549
     28 C         140.5425  138.8968  160.7910 C.ar    1  UNL1        0.0503
     29 C         141.1519  139.8375  161.7878 C.ar    1  UNL1        0.0144
     30 C         140.6146  139.8989  163.1870 C.ar    1  UNL1       -0.0002
     31 C         139.4678  139.0196  163.5892 C.ar    1  UNL1        0.0182
     32 C         138.8584  138.0789  162.5923 C.ar    1  UNL1       -0.0002
     33 C         139.3957  138.0175  161.1932 C.ar    1  UNL1        0.0144
     34 C         138.9304  139.0810  164.9883 C.3     1  UNL1        0.2827
     35 O         139.3711  137.6660  165.2196 O.3     1  UNL1       -0.3692
     36 H         139.1385  137.3984  166.1225 H       1  UNL1        0.2112
     37 C         138.3931  139.1424  166.3873 C.3     1  UNL1        0.4311
     38 F         137.8557  139.2038  167.7865 F       1  UNL1       -0.1669
     39 F         139.7922  139.2303  166.9209 F       1  UNL1       -0.1669
     40 F         137.5343  139.0953  166.1753 F       1  UNL1       -0.1669
     41 C         138.4898  140.4960  164.7569 C.3     1  UNL1        0.4311
     42 F         138.0490  141.9110  164.5255 F       1  UNL1       -0.1669
     43 F         139.0574  140.8791  165.3185 F       1  UNL1       -0.1669
     44 F         137.3906  140.3727  163.7435 F       1  UNL1       -0.1669
@<TRIPOS>BOND
     1    11    12    1
     2    12     8    1
     3     8     9    2
     4     8    10    2
     5     8     2    1
     6     2     3   ar
     7     3     4   ar
     8     4     5   ar
     9     5     1    1
    10     1    13    1
    11    13    14   am
    12    14    15    2
    13    14    17    1
    14    17    18    1
    15    18    19   ar
    16    19    20   ar
    17    20    21   ar
    18    21    22   ar
    19    22    23   ar
    20     1    24    1
    21    24    25    2
    22    24    26   am
    23    26    28    1
    24    28    29   ar
    25    29    30   ar
    26    30    31   ar
    27    31    34    1
    28    34    35    1
    29    34    37    1
    30    37    38    1
    31    37    39    1
    32    37    40    1
    33    34    41    1
    34    41    42    1
    35    41    43    1
    36    41    44    1
    37    31    32   ar
    38    32    33   ar
    39     5     6   ar
    40     6     7   ar
    41     7     2   ar
    42    23    18   ar
    43    33    28   ar
    44    13    16    1
    45    26    27    1
    46    35    36    1
@<TRIPOS>MOLECULE
*****
 44 46 0 0 0
SMALL
GASTEIGER

@<TRIPOS>ATOM
      1 C         141.2224  138.1261  158.0941 C.3     1  UNL1        0.1895
      2 C         137.7812  140.3906  156.2829 C.ar    1  UNL1        0.1247
      3 C         138.5347  139.3876  155.4607 C.ar    1  UNL1        0.0212
      4 C         139.6818  138.6328  156.0644 C.ar    1  UNL1        0.0182
      5 C         140.0753  138.8809  157.4903 C.ar    1  UNL1        0.0859
      6 N         139.3218  139.8839  158.3126 N.ar    1  UNL1       -0.2447
      7 C         138.1748  140.6388  157.7089 C.ar    1  UNL1        0.1168
      8 S         136.6341  141.1455  155.6792 S.O2    1  UNL1        0.0101
      9 O         137.6006  142.0280  154.9464 O.2     1  UNL1       -0.1686
     10 O         135.6677  140.2629  156.4121 O.2     1  UNL1       -0.1686
     11 C         134.1075  141.3120  155.0978 C.3     1  UNL1        0.0276
     12 C         135.4871  141.9003  155.0755 C.3     1  UNL1        0.1560
     13 N         141.9591  137.1042  157.2799 N.am    1  UNL1       -0.2934
     14 C         143.2056  137.4910  156.5406 C.2     1  UNL1        0.2291
     15 O         143.7154  138.8997  156.6153 O.2     1  UNL1       -0.2747
     16 H         141.6246  136.1796  157.2309 H       1  UNL1        0.1502
     17 C         143.9424  136.4690  155.7264 C.3     1  UNL1        0.1306
     18 C         143.4197  135.0661  155.6326 C.ar    1  UNL1        0.0682
     19 C         142.7875  134.5849  154.3603 C.ar    1  UNL1        0.0152
     20 C         142.2648  133.1820  154.2664 C.ar    1  UNL1        0.0028
     21 C         142.3743  132.2604  155.4450 C.ar    1  UNL1        0.0207
     22 C         143.0065  132.7417  156.7172 C.ar    1  UNL1        0.0985
     23 N         143.5292  134.1446  156.8110 N.ar    1  UNL1       -0.2477
     24 C         141.6327  138.3932  159.5119 C.2     1  UNL1        0.2499
     25 O         143.0614  138.7215  159.8301 O.2     1  UNL1       -0.2726
     26 N         140.6144  138.3320  160.6116 N.am    1  UNL1       -0.2823
     27 H         139.6767  138.1165  160.4028 H       1  UNL1        0.1549
     28 C         141.0248  138.5991  162.0295 C.ar    1  UNL1        0.0503
     29 C         141.2973  137.4544  162.9597 C.ar    1  UNL1        0.0144
     30 C         141.7077  137.7215  164.3775 C.ar    1  UNL1       -0.0002
     31 C         141.8455  139.1333  164.8651 C.ar    1  UNL1        0.0182
     32 C         141.5730  140.2781  163.9348 C.ar    1  UNL1       -0.0002
     33 C         141.1626  140.0109  162.5170 C.ar    1  UNL1        0.0144
     34 C         142.2559  139.4005  166.2829 C.3     1  UNL1        0.2827
     35 O         140.8494  139.8031  166.6141 O.3     1  UNL1       -0.3692
     36 H         140.7965  140.0528  167.5499 H       1  UNL1        0.2112
     37 C         142.6662  139.6676  167.7007 C.3     1  UNL1        0.4311
     38 F         143.0766  139.9347  169.1186 F       1  UNL1       -0.1669
     39 F         142.9738  141.0915  167.3434 F       1  UNL1       -0.1669
     40 F         142.5155  138.8522  168.0122 F       1  UNL1       -0.1669
     41 C         143.6623  138.9978  165.9517 C.3     1  UNL1        0.4311
     42 F         145.0688  138.5950  165.6205 F       1  UNL1       -0.1669
     43 F         143.8925  139.7436  165.5333 F       1  UNL1       -0.1669
     44 F         143.7892  137.6174  166.5250 F       1  UNL1       -0.1669
@<TRIPOS>BOND
     1    11    12    1
     2    12     8    1
     3     8     9    2
     4     8    10    2
     5     8     2    1
     6     2     3   ar
     7     3     4   ar
     8     4     5   ar
     9     5     1    1
    10     1    13    1
    11    13    14   am
    12    14    15    2
    13    14    17    1
    14    17    18    1
    15    18    19   ar
    16    19    20   ar
    17    20    21   ar
    18    21    22   ar
    19    22    23   ar
    20     1    24    1
    21    24    25    2
    22    24    26   am
    23    26    28    1
    24    28    29   ar
    25    29    30   ar
    26    30    31   ar
    27    31    34    1
    28    34    35    1
    29    34    37    1
    30    37    38    1
    31    37    39    1
    32    37    40    1
    33    34    41    1
    34    41    42    1
    35    41    43    1
    36    41    44    1
    37    31    32   ar
    38    32    33   ar
    39     5     6   ar
    40     6     7   ar
    41     7     2   ar
    42    23    18   ar
    43    33    28   ar
    44    13    16    1
    45    26    27    1
    46    35    36    1
@<TRIPOS>MOLECULE
*****
 44 46 0 0 0
SMALL
GASTEIGER

@<TRIPOS>ATOM
      1 C         143.1833  139.7395  157.9223 C.3     1  UNL1        0.1895
      2 C         146.5165  141.5674  155.5143 C.ar    1  UNL1        0.1247
      3 C         145.7771  140.3738  154.9864 C.ar    1  UNL1        0.0212
      4 C         144.6661  139.7645  155.7891 C.ar    1  UNL1        0.0182
      5 C         144.2943  140.3488  157.1196 C.ar    1  UNL1        0.0859
      6 N         145.0336  141.5424  157.6475 N.ar    1  UNL1       -0.2447
      7 C         146.1447  142.1517  156.8448 C.ar    1  UNL1        0.1168
      8 S         147.6275  142.1768  154.7116 S.O2    1  UNL1        0.0101
      9 O         146.6447  142.5677  153.6480 O.2     1  UNL1       -0.1686
     10 O         148.6103  141.7858  155.7753 O.2     1  UNL1       -0.1686
     11 C         148.4981  144.0454  153.1305 C.3     1  UNL1        0.0276
     12 C         148.7386  142.7861  153.9090 C.3     1  UNL1        0.1560
     13 N         142.6242  138.4025  157.5351 N.am    1  UNL1       -0.2934
     14 C         141.3678  138.3226  156.7195 C.2     1  UNL1        0.2291
     15 O         140.6705  139.5796  156.2911 O.2     1  UNL1       -0.2747
     16 H         143.0819  137.5775  157.8163 H       1  UNL1        0.1502
     17 C         140.8088  136.9855  156.3324 C.3     1  UNL1        0.1306
     18 C         141.7318  135.8278  156.0921 C.ar    1  UNL1        0.0682
     19 C         141.5610  134.9733  154.8712 C.ar    1  UNL1        0.0152
     20 C         142.4840  133.8155  154.6309 C.ar    1  UNL1        0.0028
     21 C         143.5778  133.5123  155.6117 C.ar    1  UNL1        0.0207
     22 C         143.7485  134.3668  156.8326 C.ar    1  UNL1        0.0985
     23 N         142.8255  135.5245  157.0728 N.ar    1  UNL1       -0.2477
     24 C         142.6312  140.4671  159.1121 C.2     1  UNL1        0.2499
     25 O         143.4095  140.5079  160.3938 O.2     1  UNL1       -0.2726
     26 N         141.3009  141.1540  159.0204 N.am    1  UNL1       -0.2823
     27 H         140.7901  141.1273  158.1792 H       1  UNL1        0.1549
     28 C         140.7489  141.8817  160.2103 C.ar    1  UNL1        0.0503
     29 C         140.0173  141.1251  161.2790 C.ar    1  UNL1        0.0144
     30 C         139.4653  141.8528  162.4690 C.ar    1  UNL1       -0.0002
     31 C         139.6449  143.3371  162.5901 C.ar    1  UNL1        0.0182
     32 C         140.3766  144.0937  161.5212 C.ar    1  UNL1       -0.0002
     33 C         140.9286  143.3660  160.3314 C.ar    1  UNL1        0.0144
     34 C         139.0930  144.0647  163.7799 C.3     1  UNL1        0.2827
     35 O         138.0024  144.6372  162.9239 O.3     1  UNL1       -0.3692
     36 H         137.4307  145.2042  163.4648 H       1  UNL1        0.2112
     37 C         138.5410  144.7924  164.9698 C.3     1  UNL1        0.4311
     38 F         137.9891  145.5202  166.1597 F       1  UNL1       -0.1669
     39 F         137.2982  143.9550  164.9054 F       1  UNL1       -0.1669
     40 F         139.2297  145.3356  165.0931 F       1  UNL1       -0.1669
     41 C         140.1836  143.4923  164.6359 C.3     1  UNL1        0.4311
     42 F         141.2743  142.9198  165.4920 F       1  UNL1       -0.1669
     43 F         140.8517  143.9543  164.2829 F       1  UNL1       -0.1669
     44 F         139.4713  142.5207  165.5297 F       1  UNL1       -0.1669
@<TRIPOS>BOND
     1    11    12    1
     2    12     8    1
     3     8     9    2
     4     8    10    2
     5     8     2    1
     6     2     3   ar
     7     3     4   ar
     8     4     5   ar
     9     5     1    1
    10     1    13    1
    11    13    14   am
    12    14    15    2
    13    14    17    1
    14    17    18    1
    15    18    19   ar
    16    19    20   ar
    17    20    21   ar
    18    21    22   ar
    19    22    23   ar
    20     1    24    1
    21    24    25    2
    22    24    26   am
    23    26    28    1
    24    28    29   ar
    25    29    30   ar
    26    30    31   ar
    27    31    34    1
    28    34    35    1
    29    34    37    1
    30    37    38    1
    31    37    39    1
    32    37    40    1
    33    34    41    1
    34    41    42    1
    35    41    43    1
    36    41    44    1
    37    31    32   ar
    38    32    33   ar
    39     5     6   ar
    40     6     7   ar
    41     7     2   ar
    42    23    18   ar
    43    33    28   ar
    44    13    16    1
    45    26    27    1
    46    35    36    1
@<TRIPOS>MOLECULE
*****
 44 46 0 0 0
SMALL
GASTEIGER

@<TRIPOS>ATOM
      1 C         142.6884  138.0007  157.8328 C.3     1  UNL1        0.1895
      2 C         142.4196  134.1475  155.5240 C.ar    1  UNL1        0.1247
      3 C         141.7332  135.3786  155.0111 C.ar    1  UNL1        0.0212
      4 C         141.8228  136.6630  155.7807 C.ar    1  UNL1        0.0182
      5 C         142.5988  136.7163  157.0632 C.ar    1  UNL1        0.0859
      6 N         143.2852  135.4852  157.5761 N.ar    1  UNL1       -0.2447
      7 C         143.1956  134.2008  156.8065 C.ar    1  UNL1        0.1168
      8 S         142.3300  132.8631  154.7544 S.O2    1  UNL1        0.0101
      9 O         142.3592  133.6325  153.4671 O.2     1  UNL1       -0.1686
     10 O         142.3008  132.0938  156.0418 O.2     1  UNL1       -0.1686
     11 C         143.3548  131.1762  153.0651 C.3     1  UNL1        0.0276
     12 C         142.2404  131.5787  153.9848 C.3     1  UNL1        0.1560
     13 N         143.2899  139.2174  157.1941 N.am    1  UNL1       -0.2934
     14 C         142.4031  140.2476  156.5600 C.2     1  UNL1        0.2291
     15 O         140.9147  140.0613  156.5646 O.2     1  UNL1       -0.2747
     16 H         144.2668  139.3397  157.1911 H       1  UNL1        0.1502
     17 C         143.0046  141.4643  155.9213 C.3     1  UNL1        0.1306
     18 C         144.4953  141.6037  155.8294 C.ar    1  UNL1        0.0682
     19 C         145.2133  141.1757  154.5838 C.ar    1  UNL1        0.0152
     20 C         146.7039  141.3151  154.4920 C.ar    1  UNL1        0.0028
     21 C         147.4767  141.8824  155.6457 C.ar    1  UNL1        0.0207
     22 C         146.7587  142.3103  156.8913 C.ar    1  UNL1        0.0985
     23 N         145.2681  142.1709  156.9831 N.ar    1  UNL1       -0.2477
     24 C         142.1765  138.0685  159.2411 C.2     1  UNL1        0.2499
     25 O         142.9440  137.4124  160.3505 O.2     1  UNL1       -0.2726
     26 N         140.8972  138.7923  159.5401 N.am    1  UNL1       -0.2823
     27 H         140.3935  139.2229  158.8120 H       1  UNL1        0.1549
     28 C         140.3853  138.8601  160.9485 C.ar    1  UNL1        0.0503
     29 C         141.0020  139.8168  161.9254 C.ar    1  UNL1        0.0144
     30 C         140.4901  139.8845  163.3338 C.ar    1  UNL1       -0.0002
     31 C         139.3615  138.9956  163.7651 C.ar    1  UNL1        0.0182
     32 C         138.7448  138.0389  162.7881 C.ar    1  UNL1       -0.0002
     33 C         139.2567  137.9711  161.3798 C.ar    1  UNL1        0.0144
     34 C         138.8496  139.0633  165.1734 C.3     1  UNL1        0.2827
     35 O         139.3850  137.6866  165.4342 O.3     1  UNL1       -0.3692
     36 H         139.1883  137.4311  166.3491 H       1  UNL1        0.2112
     37 C         138.3377  139.1310  166.5817 C.3     1  UNL1        0.4311
     38 F         137.8258  139.1987  167.9901 F       1  UNL1       -0.1669
     39 F         139.7413  139.2974  167.0839 F       1  UNL1       -0.1669
     40 F         137.4782  139.0383  166.3887 F       1  UNL1       -0.1669
     41 C         138.3143  140.4400  164.9126 C.3     1  UNL1        0.4311
     42 F         137.7790  141.8168  164.6519 F       1  UNL1       -0.1669
     43 F         137.6842  140.2036  164.3368 F       1  UNL1       -0.1669
     44 F         139.1642  141.3287  165.7718 F       1  UNL1       -0.1669
@<TRIPOS>BOND
     1    11    12    1
     2    12     8    1
     3     8     9    2
     4     8    10    2
     5     8     2    1
     6     2     3   ar
     7     3     4   ar
     8     4     5   ar
     9     5     1    1
    10     1    13    1
    11    13    14   am
    12    14    15    2
    13    14    17    1
    14    17    18    1
    15    18    19   ar
    16    19    20   ar
    17    20    21   ar
    18    21    22   ar
    19    22    23   ar
    20     1    24    1
    21    24    25    2
    22    24    26   am
    23    26    28    1
    24    28    29   ar
    25    29    30   ar
    26    30    31   ar
    27    31    34    1
    28    34    35    1
    29    34    37    1
    30    37    38    1
    31    37    39    1
    32    37    40    1
    33    34    41    1
    34    41    42    1
    35    41    43    1
    36    41    44    1
    37    31    32   ar
    38    32    33   ar
    39     5     6   ar
    40     6     7   ar
    41     7     2   ar
    42    23    18   ar
    43    33    28   ar
    44    13    16    1
    45    26    27    1
    46    35    36    1
@<TRIPOS>MOLECULE
*****
 44 46 0 0 0
SMALL
GASTEIGER

@<TRIPOS>ATOM
      1 C         142.9798  138.2162  157.3920 C.3     1  UNL1        0.1895
      2 C         142.1410  134.0350  155.9554 C.ar    1  UNL1        0.1247
      3 C         141.3543  135.1884  155.4071 C.ar    1  UNL1        0.0212
      4 C         141.6339  136.5821  155.8859 C.ar    1  UNL1        0.0182
      5 C         142.7002  136.8225  156.9132 C.ar    1  UNL1        0.0859
      6 N         143.4869  135.6691  157.4615 N.ar    1  UNL1       -0.2447
      7 C         143.2073  134.2753  156.9826 C.ar    1  UNL1        0.1168
      8 S         141.8614  132.6412  155.4766 S.O2    1  UNL1        0.0101
      9 O         141.3202  133.1917  154.1905 O.2     1  UNL1       -0.1686
     10 O         142.4027  132.0908  156.7627 O.2     1  UNL1       -0.1686
     11 C         140.1916  130.8595  154.5895 C.3     1  UNL1        0.0276
     12 C         141.5818  131.2475  154.9977 C.3     1  UNL1        0.1560
     13 N         143.7681  139.1603  156.5334 N.am    1  UNL1       -0.2934
     14 C         143.0599  140.0745  155.5781 C.2     1  UNL1        0.2291
     15 O         141.5633  140.0448  155.4816 O.2     1  UNL1       -0.2747
     16 H         144.7504  139.1798  156.5968 H       1  UNL1        0.1502
     17 C         143.8482  141.0186  154.7195 C.3     1  UNL1        0.1306
     18 C         145.2202  141.4510  155.1445 C.ar    1  UNL1        0.0682
     19 C         146.3721  141.3357  154.1904 C.ar    1  UNL1        0.0152
     20 C         147.7441  141.7682  154.6154 C.ar    1  UNL1        0.0028
     21 C         147.9643  142.3159  155.9944 C.ar    1  UNL1        0.0207
     22 C         146.8125  142.4312  156.9483 C.ar    1  UNL1        0.0985
     23 N         145.4405  141.9988  156.5234 N.ar    1  UNL1       -0.2477
     24 C         142.4711  138.6659  158.7295 C.2     1  UNL1        0.2499
     25 O         142.2173  140.1222  158.9845 O.2     1  UNL1       -0.2726
     26 N         142.2163  137.6594  159.8121 N.am    1  UNL1       -0.2823
     27 H         142.3829  136.7036  159.6448 H       1  UNL1        0.1549
     28 C         141.7076  138.1092  161.1497 C.ar    1  UNL1        0.0503
     29 C         140.2446  138.3768  161.3444 C.ar    1  UNL1        0.0144
     30 C         139.7359  138.8266  162.6819 C.ar    1  UNL1       -0.0002
     31 C         140.6902  139.0087  163.8248 C.ar    1  UNL1        0.0182
     32 C         142.1533  138.7409  163.6300 C.ar    1  UNL1       -0.0002
     33 C         142.6619  138.2912  162.2925 C.ar    1  UNL1        0.0144
     34 C         140.1816  139.4584  165.1623 C.3     1  UNL1        0.2827
     35 O         141.0640  140.6693  165.0907 O.3     1  UNL1       -0.3692
     36 H         140.9440  141.2045  165.8907 H       1  UNL1        0.2112
     37 C         139.6729  139.9081  166.4998 C.3     1  UNL1        0.4311
     38 F         139.1643  140.3578  167.8374 F       1  UNL1       -0.1669
     39 F         138.9604  141.0535  165.8437 F       1  UNL1       -0.1669
     40 F         140.0540  139.2692  166.9806 F       1  UNL1       -0.1669
     41 C         139.2992  138.2475  165.2339 C.3     1  UNL1        0.4311
     42 F         138.4168  137.0366  165.3055 F       1  UNL1       -0.1669
     43 F         138.5257  138.6785  165.2538 F       1  UNL1       -0.1669
     44 F         140.2611  137.0965  165.2268 F       1  UNL1       -0.1669
@<TRIPOS>BOND
     1    11    12    1
     2    12     8    1
     3     8     9    2
     4     8    10    2
     5     8     2    1
     6     2     3   ar
     7     3     4   ar
     8     4     5   ar
     9     5     1    1
    10     1    13    1
    11    13    14   am
    12    14    15    2
    13    14    17    1
    14    17    18    1
    15    18    19   ar
    16    19    20   ar
    17    20    21   ar
    18    21    22   ar
    19    22    23   ar
    20     1    24    1
    21    24    25    2
    22    24    26   am
    23    26    28    1
    24    28    29   ar
    25    29    30   ar
    26    30    31   ar
    27    31    34    1
    28    34    35    1
    29    34    37    1
    30    37    38    1
    31    37    39    1
    32    37    40    1
    33    34    41    1
    34    41    42    1
    35    41    43    1
    36    41    44    1
    37    31    32   ar
    38    32    33   ar
    39     5     6   ar
    40     6     7   ar
    41     7     2   ar
    42    23    18   ar
    43    33    28   ar
    44    13    16    1
    45    26    27    1
    46    35    36    1
@<TRIPOS>MOLECULE
*****
 44 46 0 0 0
SMALL
GASTEIGER

@<TRIPOS>ATOM
      1 C         141.0639  143.1243  157.7674 C.3     1  UNL1        0.1895
      2 C         145.3484  142.4471  156.5696 C.ar    1  UNL1        0.1247
      3 C         144.9814  142.5424  158.0209 C.ar    1  UNL1        0.0212
      4 C         143.5533  142.7681  158.4201 C.ar    1  UNL1        0.0182
      5 C         142.4920  142.8986  157.3681 C.ar    1  UNL1        0.0859
      6 N         142.8590  142.8032  155.9169 N.ar    1  UNL1       -0.2447
      7 C         144.2872  142.5775  155.5176 C.ar    1  UNL1        0.1168
      8 S         146.7765  142.2213  156.1704 S.O2    1  UNL1        0.0101
      9 O         146.3180  141.5422  154.9140 O.2     1  UNL1       -0.1686
     10 O         147.2351  142.9004  157.4268 O.2     1  UNL1       -0.1686
     11 C         148.5883  142.0036  154.3211 C.3     1  UNL1        0.0276
     12 C         148.2047  141.9956  155.7712 C.3     1  UNL1        0.1560
     13 N         140.1102  143.7718  156.8076 N.am    1  UNL1       -0.2934
     14 C         140.0318  145.2673  156.7223 C.2     1  UNL1        0.2291
     15 O         140.9070  146.1153  157.5967 O.2     1  UNL1       -0.2747
     16 H         139.5357  143.2152  156.2336 H       1  UNL1        0.1502
     17 C         139.0780  145.9148  155.7624 C.3     1  UNL1        0.1306
     18 C         139.0937  147.4034  155.5790 C.ar    1  UNL1        0.0682
     19 C         139.6778  147.9994  154.3325 C.ar    1  UNL1        0.0152
     20 C         139.6934  149.4880  154.1490 C.ar    1  UNL1        0.0028
     21 C         139.1250  150.3807  155.2121 C.ar    1  UNL1        0.0207
     22 C         138.5409  149.7848  156.4585 C.ar    1  UNL1        0.0985
     23 N         138.5253  148.2961  156.6420 N.ar    1  UNL1       -0.2477
     24 C         140.5894  142.7026  159.1264 C.2     1  UNL1        0.2499
     25 O         140.2246  143.7383  160.1482 O.2     1  UNL1       -0.2726
     26 N         140.4797  141.2451  159.4636 N.am    1  UNL1       -0.2823
     27 H         140.7191  140.5653  158.7929 H       1  UNL1        0.1549
     28 C         140.0052  140.8234  160.8227 C.ar    1  UNL1        0.0503
     29 C         138.5480  140.5581  161.0594 C.ar    1  UNL1        0.0144
     30 C         138.0735  140.1363  162.4185 C.ar    1  UNL1       -0.0002
     31 C         139.0563  139.9800  163.5408 C.ar    1  UNL1        0.0182
     32 C         140.5135  140.2453  163.3041 C.ar    1  UNL1       -0.0002
     33 C         140.9880  140.6670  161.9450 C.ar    1  UNL1        0.0144
     34 C         138.5818  139.5583  164.8999 C.3     1  UNL1        0.2827
     35 O         137.7365  140.7942  164.9883 O.3     1  UNL1       -0.3692
     36 H         137.2650  140.8036  165.8359 H       1  UNL1        0.2112
     37 C         138.1074  139.1366  166.2589 C.3     1  UNL1        0.4311
     38 F         137.6329  138.7149  167.6180 F       1  UNL1       -0.1669
     39 F         138.8575  140.2799  166.8755 F       1  UNL1       -0.1669
     40 F         137.6336  138.4362  165.9953 F       1  UNL1       -0.1669
     41 C         139.4271  138.3224  164.8115 C.3     1  UNL1        0.4311
     42 F         140.2725  137.0864  164.7231 F       1  UNL1       -0.1669
     43 F         138.9455  137.9059  164.1958 F       1  UNL1       -0.1669
     44 F         140.5299  138.5655  165.7989 F       1  UNL1       -0.1669
@<TRIPOS>BOND
     1    11    12    1
     2    12     8    1
     3     8     9    2
     4     8    10    2
     5     8     2    1
     6     2     3   ar
     7     3     4   ar
     8     4     5   ar
     9     5     1    1
    10     1    13    1
    11    13    14   am
    12    14    15    2
    13    14    17    1
    14    17    18    1
    15    18    19   ar
    16    19    20   ar
    17    20    21   ar
    18    21    22   ar
    19    22    23   ar
    20     1    24    1
    21    24    25    2
    22    24    26   am
    23    26    28    1
    24    28    29   ar
    25    29    30   ar
    26    30    31   ar
    27    31    34    1
    28    34    35    1
    29    34    37    1
    30    37    38    1
    31    37    39    1
    32    37    40    1
    33    34    41    1
    34    41    42    1
    35    41    43    1
    36    41    44    1
    37    31    32   ar
    38    32    33   ar
    39     5     6   ar
    40     6     7   ar
    41     7     2   ar
    42    23    18   ar
    43    33    28   ar
    44    13    16    1
    45    26    27    1
    46    35    36    1
@<TRIPOS>MOLECULE
*****
 44 46 0 0 0
SMALL
GASTEIGER

@<TRIPOS>ATOM
      1 C         141.6787  138.9709  157.6725 C.3     1  UNL1        0.1895
      2 C         141.7532  134.9274  155.6990 C.ar    1  UNL1        0.1247
      3 C         142.7961  135.2850  156.7160 C.ar    1  UNL1        0.0212
      4 C         142.7713  136.6328  157.3738 C.ar    1  UNL1        0.0182
      5 C         141.7035  137.6231  157.0146 C.ar    1  UNL1        0.0859
      6 N         140.6605  137.2656  155.9976 N.ar    1  UNL1       -0.2447
      7 C         140.6854  135.9177  155.3398 C.ar    1  UNL1        0.1168
      8 S         141.7780  133.5796  155.0412 S.O2    1  UNL1        0.0101
      9 O         142.0453  132.9362  156.3696 O.2     1  UNL1       -0.1686
     10 O         141.5108  134.2230  153.7128 O.2     1  UNL1       -0.1686
     11 C         140.6877  131.2583  154.6256 C.3     1  UNL1        0.0276
     12 C         141.8029  132.2318  154.3834 C.3     1  UNL1        0.1560
     13 N         142.0495  140.1949  156.8887 N.am    1  UNL1       -0.2934
     14 C         143.4738  140.6645  156.8605 C.2     1  UNL1        0.2291
     15 O         144.5273  139.9100  157.6160 O.2     1  UNL1       -0.2747
     16 H         141.3580  140.6901  156.3929 H       1  UNL1        0.1502
     17 C         143.8446  141.8885  156.0767 C.3     1  UNL1        0.1306
     18 C         143.1560  143.1924  156.3519 C.ar    1  UNL1        0.0682
     19 C         142.6728  144.0405  155.2128 C.ar    1  UNL1        0.0152
     20 C         141.9842  145.3443  155.4880 C.ar    1  UNL1        0.0028
     21 C         141.7787  145.8001  156.9023 C.ar    1  UNL1        0.0207
     22 C         142.2618  144.9521  158.0413 C.ar    1  UNL1        0.0985
     23 N         142.9504  143.6482  157.7661 N.ar    1  UNL1       -0.2477
     24 C         141.2830  139.0948  159.1140 C.2     1  UNL1        0.2499
     25 O         142.0373  140.0203  160.0220 O.2     1  UNL1       -0.2726
     26 N         140.1330  138.2930  159.6476 N.am    1  UNL1       -0.2823
     27 H         139.6379  137.6856  159.0517 H       1  UNL1        0.1549
     28 C         139.7374  138.4169  161.0893 C.ar    1  UNL1        0.0503
     29 C         140.5604  137.7523  162.1526 C.ar    1  UNL1        0.0144
     30 C         140.1648  137.8762  163.5943 C.ar    1  UNL1       -0.0002
     31 C         138.9461  138.6647  163.9724 C.ar    1  UNL1        0.0182
     32 C         138.1230  139.3293  162.9089 C.ar    1  UNL1       -0.0002
     33 C         138.5186  139.2054  161.4674 C.ar    1  UNL1        0.0144
     34 C         138.5504  138.7886  165.4139 C.3     1  UNL1        0.2827
     35 O         138.4747  137.2944  165.5216 O.3     1  UNL1       -0.3692
     36 H         138.2172  137.0478  166.4237 H       1  UNL1        0.2112
     37 C         138.1547  138.9125  166.8555 C.3     1  UNL1        0.4311
     38 F         137.7590  139.0363  168.2971 F       1  UNL1       -0.1669
     39 F         139.5504  139.3393  167.2019 F       1  UNL1       -0.1669
     40 F         137.3082  138.6712  166.7562 F       1  UNL1       -0.1669
     41 C         138.6261  140.2828  165.3063 C.3     1  UNL1        0.4311
     42 F         138.7018  141.7770  165.1986 F       1  UNL1       -0.1669
     43 F         137.7626  140.4432  165.4209 F       1  UNL1       -0.1669
     44 F         140.0830  140.5569  165.0776 F       1  UNL1       -0.1669
@<TRIPOS>BOND
     1    11    12    1
     2    12     8    1
     3     8     9    2
     4     8    10    2
     5     8     2    1
     6     2     3   ar
     7     3     4   ar
     8     4     5   ar
     9     5     1    1
    10     1    13    1
    11    13    14   am
    12    14    15    2
    13    14    17    1
    14    17    18    1
    15    18    19   ar
    16    19    20   ar
    17    20    21   ar
    18    21    22   ar
    19    22    23   ar
    20     1    24    1
    21    24    25    2
    22    24    26   am
    23    26    28    1
    24    28    29   ar
    25    29    30   ar
    26    30    31   ar
    27    31    34    1
    28    34    35    1
    29    34    37    1
    30    37    38    1
    31    37    39    1
    32    37    40    1
    33    34    41    1
    34    41    42    1
    35    41    43    1
    36    41    44    1
    37    31    32   ar
    38    32    33   ar
    39     5     6   ar
    40     6     7   ar
    41     7     2   ar
    42    23    18   ar
    43    33    28   ar
    44    13    16    1
    45    26    27    1
    46    35    36    1
