@<TRIPOS>MOLECULE
*****
 37 40 0 0 0
SMALL
GASTEIGER

@<TRIPOS>ATOM
      1 C         142.6045  143.4198  160.4074 C.3     1  UNL1        0.0401
      2 C         141.3215  144.1773  160.2336 C.3     1  UNL1        0.0765
      3 N         141.1138  145.0237  161.4544 N.3     1  UNL1       -0.2721
      4 C         142.2684  144.7893  162.3828 C.3     1  UNL1        0.0729
      5 C         143.1897  143.7980  161.7357 C.3     1  UNL1        0.0305
      6 C         144.3850  140.5215  157.4612 C.ar    1  UNL1        0.1387
      7 C         143.5947  140.0124  158.6300 C.ar    1  UNL1        0.0366
      8 C         143.0012  140.9785  159.6121 C.ar    1  UNL1       -0.0011
      9 C         143.1980  142.4537  159.4253 C.ar    1  UNL1       -0.0209
     10 C         143.9883  142.9629  158.2566 C.ar    1  UNL1       -0.0011
     11 C         144.5818  141.9968  157.2745 C.ar    1  UNL1        0.0366
     12 C         145.5763  140.0594  155.1991 C.3     1  UNL1        0.2525
     13 O         144.9785  139.5555  156.4792 O.3     1  UNL1       -0.4714
     14 C         139.9550  145.9430  161.7032 C.3     1  UNL1        0.0768
     15 C         138.9378  145.6009  162.7511 C.3     1  UNL1        0.0438
     16 C         138.7897  144.1831  163.2180 C.ar    1  UNL1       -0.0176
     17 C         139.4082  143.7522  164.5150 C.ar    1  UNL1       -0.0009
     18 C         139.2601  142.3344  164.9819 C.ar    1  UNL1        0.0397
     19 C         138.4937  141.3476  164.1519 C.ar    1  UNL1        0.1724
     20 C         137.8754  141.7785  162.8550 C.ar    1  UNL1        0.1721
     21 C         138.0234  143.1963  162.3881 C.ar    1  UNL1        0.0358
     22 O         138.3457  139.9298  164.6188 O.3     1  UNL1       -0.4684
     23 C         139.5182  139.2112  165.2179 C.3     1  UNL1        0.2526
     24 O         137.1090  140.7917  162.0250 O.3     1  UNL1       -0.4684
     25 C         137.8382  139.8654  161.0975 C.3     1  UNL1        0.2526
     26 C         144.4712  143.2766  162.3152 C.3     1  UNL1        0.0871
     27 C         144.4378  142.3237  163.4731 C.2     1  UNL1        0.2262
     28 O         145.7000  142.0039  164.2180 O.2     1  UNL1       -0.2748
     29 N         143.1423  141.6904  163.8862 N.am    1  UNL1       -0.2839
     30 H         142.3139  141.9003  163.3974 H       1  UNL1        0.1549
     31 C         143.1089  140.7375  165.0441 C.ar    1  UNL1        0.0511
     32 C         143.5117  139.3058  164.8490 C.ar    1  UNL1        0.0147
     33 C         143.4784  138.3528  166.0069 C.ar    1  UNL1        0.0021
     34 C         143.0423  138.8315  167.3599 C.ar    1  UNL1        0.0115
     35 C         142.6395  140.2631  167.5550 C.ar    1  UNL1        0.0589
     36 CL        142.2033  140.7419  168.9081 Cl      1  UNL1       -0.0822
     37 C         142.6728  141.2161  166.3971 C.ar    1  UNL1        0.0261
@<TRIPOS>BOND
     1    12    13    1
     2    13     6    1
     3     6     7   ar
     4     7     8   ar
     5     8     9   ar
     6     1     9    1
     7     1     2    1
     8     2     3    1
     9     3    14    1
    10    14    15    1
    11    15    16    1
    12    16    17   ar
    13    17    18   ar
    14    18    19   ar
    15    19    22    1
    16    22    23    1
    17    19    20   ar
    18    20    24    1
    19    24    25    1
    20    20    21   ar
    21     3     4    1
    22     4     5    1
    23     5    26    1
    24    26    27    1
    25    27    28    2
    26    27    29   am
    27    29    31    1
    28    31    32   ar
    29    32    33   ar
    30    33    34   ar
    31    34    35   ar
    32    35    36    1
    33    35    37   ar
    34     9    10   ar
    35    10    11   ar
    36    11     6   ar
    37     5     1    1
    38    37    31   ar
    39    21    16   ar
    40    29    30    1
@<TRIPOS>MOLECULE
*****
 37 40 0 0 0
SMALL
GASTEIGER

@<TRIPOS>ATOM
      1 C         140.3268  141.3487  167.3972 C.3     1  UNL1        0.0401
      2 C         139.7401  139.9768  167.5509 C.3     1  UNL1        0.0765
      3 N         138.8224  139.7323  166.3898 N.3     1  UNL1       -0.2721
      4 C         138.8419  140.9531  165.5185 C.3     1  UNL1        0.0729
      5 C         139.7717  141.9521  166.1411 C.3     1  UNL1        0.0305
      6 C         143.2406  143.3098  170.2103 C.ar    1  UNL1        0.1387
      7 C         141.7829  143.6569  170.2784 C.ar    1  UNL1        0.0366
      8 C         140.8116  143.0032  169.3407 C.ar    1  UNL1       -0.0011
      9 C         141.2981  142.0024  168.3349 C.ar    1  UNL1       -0.0209
     10 C         142.7557  141.6553  168.2668 C.ar    1  UNL1       -0.0011
     11 C         143.7270  142.3090  169.2045 C.ar    1  UNL1        0.0366
     12 C         145.6786  143.9555  170.8342 C.3     1  UNL1        0.2525
     13 O         144.2118  143.9636  171.1481 O.3     1  UNL1       -0.4714
     14 C         138.0252  138.4859  166.1434 C.3     1  UNL1        0.0768
     15 C         138.6491  137.3263  165.4250 C.3     1  UNL1        0.0438
     16 C         139.4078  137.5535  164.1511 C.ar    1  UNL1       -0.0176
     17 C         140.8853  137.2985  164.1024 C.ar    1  UNL1       -0.0009
     18 C         141.6439  137.5257  162.8286 C.ar    1  UNL1        0.0397
     19 C         140.9252  138.0080  161.6034 C.ar    1  UNL1        0.1724
     20 C         139.4479  138.2630  161.6522 C.ar    1  UNL1        0.1721
     21 C         138.6891  138.0358  162.9261 C.ar    1  UNL1        0.0358
     22 O         141.6839  138.2352  160.3295 O.3     1  UNL1       -0.4684
     23 C         142.1306  139.6184  159.9592 C.3     1  UNL1        0.2526
     24 O         138.7292  138.7453  160.4270 O.3     1  UNL1       -0.4684
     25 C         137.5985  139.7223  160.5567 C.3     1  UNL1        0.2526
     26 C         140.0904  143.3152  165.6022 C.3     1  UNL1        0.0871
     27 C         139.8133  143.6366  164.1635 C.2     1  UNL1        0.2262
     28 O         138.4799  144.1951  163.7632 O.2     1  UNL1       -0.2748
     29 N         140.8694  143.3995  163.1251 N.am    1  UNL1       -0.2839
     30 H         141.7445  143.0329  163.3877 H       1  UNL1        0.1549
     31 C         140.5921  143.7209  161.6864 C.ar    1  UNL1        0.0511
     32 C         140.7519  145.1265  161.1877 C.ar    1  UNL1        0.0147
     33 C         140.4747  145.4480  159.7490 C.ar    1  UNL1        0.0021
     34 C         140.0377  144.3638  158.8090 C.ar    1  UNL1        0.0115
     35 C         139.8779  142.9582  159.3077 C.ar    1  UNL1        0.0589
     36 CL        139.4409  141.8740  158.3677 Cl      1  UNL1       -0.0822
     37 C         140.1552  142.6368  160.7464 C.ar    1  UNL1        0.0261
@<TRIPOS>BOND
     1    12    13    1
     2    13     6    1
     3     6     7   ar
     4     7     8   ar
     5     8     9   ar
     6     1     9    1
     7     1     2    1
     8     2     3    1
     9     3    14    1
    10    14    15    1
    11    15    16    1
    12    16    17   ar
    13    17    18   ar
    14    18    19   ar
    15    19    22    1
    16    22    23    1
    17    19    20   ar
    18    20    24    1
    19    24    25    1
    20    20    21   ar
    21     3     4    1
    22     4     5    1
    23     5    26    1
    24    26    27    1
    25    27    28    2
    26    27    29   am
    27    29    31    1
    28    31    32   ar
    29    32    33   ar
    30    33    34   ar
    31    34    35   ar
    32    35    36    1
    33    35    37   ar
    34     9    10   ar
    35    10    11   ar
    36    11     6   ar
    37     5     1    1
    38    37    31   ar
    39    21    16   ar
    40    29    30    1
@<TRIPOS>MOLECULE
*****
 37 40 0 0 0
SMALL
GASTEIGER

@<TRIPOS>ATOM
      1 C         141.2069  138.3942  160.6794 C.3     1  UNL1        0.0401
      2 C         142.1025  138.0590  159.5237 C.3     1  UNL1        0.0765
      3 N         141.2840  138.1258  158.2685 N.3     1  UNL1       -0.2721
      4 C         139.8826  138.5023  158.6483 C.3     1  UNL1        0.0729
      5 C         139.8350  138.6682  160.1384 C.3     1  UNL1        0.0305
      6 C         142.4226  138.5505  165.0093 C.ar    1  UNL1        0.1387
      7 C         141.5822  137.4143  164.5068 C.ar    1  UNL1        0.0366
      8 C         141.1769  137.3622  163.0635 C.ar    1  UNL1       -0.0011
      9 C         141.6122  138.4463  162.1227 C.ar    1  UNL1       -0.0209
     10 C         142.4526  139.5826  162.6252 C.ar    1  UNL1       -0.0011
     11 C         142.8579  139.6347  164.0685 C.ar    1  UNL1        0.0366
     12 C         142.1737  139.5830  167.3803 C.3     1  UNL1        0.2525
     13 O         142.8279  138.6026  166.4526 O.3     1  UNL1       -0.4714
     14 C         141.7799  137.8624  156.8775 C.3     1  UNL1        0.0768
     15 C         142.9270  136.9216  156.6559 C.3     1  UNL1        0.0438
     16 C         142.6666  135.4622  156.4272 C.ar    1  UNL1       -0.0176
     17 C         141.5910  135.0327  155.4738 C.ar    1  UNL1       -0.0009
     18 C         141.3306  133.5733  155.2450 C.ar    1  UNL1        0.0397
     19 C         142.1457  132.5434  155.9696 C.ar    1  UNL1        0.1724
     20 C         143.2212  132.9729  156.9229 C.ar    1  UNL1        0.1721
     21 C         143.4817  134.4324  157.1517 C.ar    1  UNL1        0.0358
     22 O         141.8853  131.0840  155.7408 O.3     1  UNL1       -0.4684
     23 C         140.9014  130.6529  154.6939 C.3     1  UNL1        0.2526
     24 O         144.0363  131.9430  157.6474 O.3     1  UNL1       -0.4684
     25 C         145.4742  132.2184  157.9740 C.3     1  UNL1        0.2526
     26 C         138.6274  139.0424  160.9457 C.3     1  UNL1        0.0871
     27 C         138.7207  140.1291  161.9753 C.2     1  UNL1        0.2262
     28 O         138.6728  139.7857  163.4347 O.2     1  UNL1       -0.2748
     29 N         138.8621  141.5593  161.5457 N.am    1  UNL1       -0.2839
     30 H         138.8936  141.7847  160.5878 H       1  UNL1        0.1549
     31 C         138.9555  142.6460  162.5754 C.ar    1  UNL1        0.0511
     32 C         137.7515  143.0104  163.3925 C.ar    1  UNL1        0.0147
     33 C         137.8448  144.0971  164.4222 C.ar    1  UNL1        0.0021
     34 C         139.1421  144.8195  164.6349 C.ar    1  UNL1        0.0115
     35 C         140.3461  144.4551  163.8177 C.ar    1  UNL1        0.0589
     36 CL        141.6435  145.1774  164.0304 Cl      1  UNL1       -0.0822
     37 C         140.2527  143.3684  162.7880 C.ar    1  UNL1        0.0261
@<TRIPOS>BOND
     1    12    13    1
     2    13     6    1
     3     6     7   ar
     4     7     8   ar
     5     8     9   ar
     6     1     9    1
     7     1     2    1
     8     2     3    1
     9     3    14    1
    10    14    15    1
    11    15    16    1
    12    16    17   ar
    13    17    18   ar
    14    18    19   ar
    15    19    22    1
    16    22    23    1
    17    19    20   ar
    18    20    24    1
    19    24    25    1
    20    20    21   ar
    21     3     4    1
    22     4     5    1
    23     5    26    1
    24    26    27    1
    25    27    28    2
    26    27    29   am
    27    29    31    1
    28    31    32   ar
    29    32    33   ar
    30    33    34   ar
    31    34    35   ar
    32    35    36    1
    33    35    37   ar
    34     9    10   ar
    35    10    11   ar
    36    11     6   ar
    37     5     1    1
    38    37    31   ar
    39    21    16   ar
    40    29    30    1
@<TRIPOS>MOLECULE
*****
 37 40 0 0 0
SMALL
GASTEIGER

@<TRIPOS>ATOM
      1 C         141.9048  138.2565  160.8151 C.3     1  UNL1        0.0401
      2 C         142.8668  137.8602  159.7346 C.3     1  UNL1        0.0765
      3 N         142.1581  137.9760  158.4176 N.3     1  UNL1       -0.2721
      4 C         140.7581  138.4440  158.6841 C.3     1  UNL1        0.0729
      5 C         140.6016  138.6173  160.1658 C.3     1  UNL1        0.0305
      6 C         142.7755  138.3473  165.2291 C.ar    1  UNL1        0.1387
      7 C         143.5982  139.1732  164.2852 C.ar    1  UNL1        0.0366
      8 C         143.3080  139.1429  162.8139 C.ar    1  UNL1       -0.0011
      9 C         142.1950  138.2868  162.2864 C.ar    1  UNL1       -0.0209
     10 C         141.3723  137.4609  163.2303 C.ar    1  UNL1       -0.0011
     11 C         141.6626  137.4911  164.7016 C.ar    1  UNL1        0.0366
     12 C         142.6218  139.5467  167.5286 C.3     1  UNL1        0.2525
     13 O         143.0658  138.3775  166.7004 O.3     1  UNL1       -0.4714
     14 C         142.7462  137.6765  157.0706 C.3     1  UNL1        0.0768
     15 C         142.0632  136.7062  156.1530 C.3     1  UNL1        0.0438
     16 C         142.3206  135.2349  156.2912 C.ar    1  UNL1       -0.0176
     17 C         143.3722  134.7435  157.2414 C.ar    1  UNL1       -0.0009
     18 C         143.6296  133.2722  157.3796 C.ar    1  UNL1        0.0397
     19 C         142.8354  132.2924  156.5676 C.ar    1  UNL1        0.1724
     20 C         141.7838  132.7838  155.6175 C.ar    1  UNL1        0.1721
     21 C         141.5264  134.2552  155.4793 C.ar    1  UNL1        0.0358
     22 O         143.0927  130.8211  156.7058 O.3     1  UNL1       -0.4684
     23 C         144.1437  130.3296  157.6566 C.3     1  UNL1        0.2526
     24 O         140.9897  131.8040  154.8056 O.3     1  UNL1       -0.4684
     25 C         141.0403  131.8562  153.3074 C.3     1  UNL1        0.2526
     26 C         139.3598  139.0718  160.8740 C.3     1  UNL1        0.0871
     27 C         139.2813  140.4612  161.4336 C.2     1  UNL1        0.2262
     28 O         138.9889  141.6196  160.5266 O.2     1  UNL1       -0.2748
     29 N         139.4954  140.6923  162.9001 N.am    1  UNL1       -0.2839
     30 H         139.6873  139.9321  163.4954 H       1  UNL1        0.1549
     31 C         139.4169  142.0818  163.4597 C.ar    1  UNL1        0.0511
     32 C         138.1386  142.5727  164.0721 C.ar    1  UNL1        0.0147
     33 C         138.0601  143.9622  164.6317 C.ar    1  UNL1        0.0021
     34 C         139.2599  144.8609  164.5788 C.ar    1  UNL1        0.0115
     35 C         140.5382  144.3701  163.9664 C.ar    1  UNL1        0.0589
     36 CL        141.7380  145.2688  163.9135 Cl      1  UNL1       -0.0822
     37 C         140.6166  142.9806  163.4068 C.ar    1  UNL1        0.0261
@<TRIPOS>BOND
     1    12    13    1
     2    13     6    1
     3     6     7   ar
     4     7     8   ar
     5     8     9   ar
     6     1     9    1
     7     1     2    1
     8     2     3    1
     9     3    14    1
    10    14    15    1
    11    15    16    1
    12    16    17   ar
    13    17    18   ar
    14    18    19   ar
    15    19    22    1
    16    22    23    1
    17    19    20   ar
    18    20    24    1
    19    24    25    1
    20    20    21   ar
    21     3     4    1
    22     4     5    1
    23     5    26    1
    24    26    27    1
    25    27    28    2
    26    27    29   am
    27    29    31    1
    28    31    32   ar
    29    32    33   ar
    30    33    34   ar
    31    34    35   ar
    32    35    36    1
    33    35    37   ar
    34     9    10   ar
    35    10    11   ar
    36    11     6   ar
    37     5     1    1
    38    37    31   ar
    39    21    16   ar
    40    29    30    1
@<TRIPOS>MOLECULE
*****
 37 40 0 0 0
SMALL
GASTEIGER

@<TRIPOS>ATOM
      1 C         142.6680  139.4543  160.4357 C.3     1  UNL1        0.0401
      2 C         143.5568  140.6600  160.3559 C.3     1  UNL1        0.0765
      3 N         144.1220  140.9104  161.7226 N.3     1  UNL1       -0.2721
      4 C         143.5826  139.8595  162.6470 C.3     1  UNL1        0.0729
      5 C         142.6840  138.9596  161.8516 C.3     1  UNL1        0.0305
      6 C         140.3593  137.6400  157.0257 C.ar    1  UNL1        0.1387
      7 C         141.8333  137.3915  157.1496 C.ar    1  UNL1        0.0366
      8 C         142.6029  137.9963  158.2863 C.ar    1  UNL1       -0.0011
      9 C         141.8984  138.8495  159.2990 C.ar    1  UNL1       -0.0209
     10 C         140.4244  139.0980  159.1751 C.ar    1  UNL1       -0.0011
     11 C         139.6548  138.4932  158.0384 C.ar    1  UNL1        0.0366
     12 C         138.9159  137.9215  154.8839 C.3     1  UNL1        0.2525
     13 O         139.5897  137.0352  155.8890 O.3     1  UNL1       -0.4714
     14 C         145.0617  142.0174  162.0988 C.3     1  UNL1        0.0768
     15 C         144.6845  142.9864  163.1798 C.3     1  UNL1        0.0438
     16 C         143.2774  143.4979  163.2709 C.ar    1  UNL1       -0.0176
     17 C         142.4390  143.1767  164.4727 C.ar    1  UNL1       -0.0009
     18 C         141.0318  143.6882  164.5638 C.ar    1  UNL1        0.0397
     19 C         140.4631  144.5209  163.4533 C.ar    1  UNL1        0.1724
     20 C         141.3015  144.8421  162.2517 C.ar    1  UNL1        0.1721
     21 C         142.7087  144.3306  162.1605 C.ar    1  UNL1        0.0358
     22 O         139.0560  145.0324  163.5444 O.3     1  UNL1       -0.4684
     23 C         137.9118  144.1594  163.1217 C.3     1  UNL1        0.2526
     24 O         140.7328  145.6748  161.1412 O.3     1  UNL1       -0.4684
     25 C         140.2661  145.0191  159.8754 C.3     1  UNL1        0.2526
     26 C         141.9331  137.7732  162.3796 C.3     1  UNL1        0.0871
     27 C         141.2264  137.8596  163.6997 C.2     1  UNL1        0.2262
     28 O         141.3248  136.7274  164.6788 O.2     1  UNL1       -0.2748
     29 N         140.4211  139.0783  164.0410 N.am    1  UNL1       -0.2839
     30 H         140.3565  139.8214  163.3985 H       1  UNL1        0.1549
     31 C         139.7144  139.1647  165.3613 C.ar    1  UNL1        0.0511
     32 C         138.4321  138.4164  165.5760 C.ar    1  UNL1        0.0147
     33 C         137.7254  138.5028  166.8962 C.ar    1  UNL1        0.0021
     34 C         138.3007  139.3375  168.0018 C.ar    1  UNL1        0.0115
     35 C         139.5830  140.0857  167.7870 C.ar    1  UNL1        0.0589
     36 CL        140.1584  140.9204  168.8927 Cl      1  UNL1       -0.0822
     37 C         140.2897  139.9993  166.4668 C.ar    1  UNL1        0.0261
@<TRIPOS>BOND
     1    12    13    1
     2    13     6    1
     3     6     7   ar
     4     7     8   ar
     5     8     9   ar
     6     1     9    1
     7     1     2    1
     8     2     3    1
     9     3    14    1
    10    14    15    1
    11    15    16    1
    12    16    17   ar
    13    17    18   ar
    14    18    19   ar
    15    19    22    1
    16    22    23    1
    17    19    20   ar
    18    20    24    1
    19    24    25    1
    20    20    21   ar
    21     3     4    1
    22     4     5    1
    23     5    26    1
    24    26    27    1
    25    27    28    2
    26    27    29   am
    27    29    31    1
    28    31    32   ar
    29    32    33   ar
    30    33    34   ar
    31    34    35   ar
    32    35    36    1
    33    35    37   ar
    34     9    10   ar
    35    10    11   ar
    36    11     6   ar
    37     5     1    1
    38    37    31   ar
    39    21    16   ar
    40    29    30    1
@<TRIPOS>MOLECULE
*****
 37 40 0 0 0
SMALL
GASTEIGER

@<TRIPOS>ATOM
      1 C         138.9132  141.8865  161.1205 C.3     1  UNL1        0.0401
      2 C         138.7521  140.4367  160.7708 C.3     1  UNL1        0.0765
      3 N         138.2431  139.7204  161.9865 N.3     1  UNL1       -0.2721
      4 C         138.0895  140.7275  163.0875 C.3     1  UNL1        0.0729
      5 C         138.5037  142.0662  162.5523 C.3     1  UNL1        0.0305
      6 C         140.3692  145.1275  158.3590 C.ar    1  UNL1        0.1387
      7 C         140.7098  145.1771  159.8189 C.ar    1  UNL1        0.0366
      8 C         140.2245  144.0967  160.7394 C.ar    1  UNL1       -0.0011
      9 C         139.3985  142.9668  160.2000 C.ar    1  UNL1       -0.0209
     10 C         139.0580  142.9172  158.7400 C.ar    1  UNL1       -0.0011
     11 C         139.5433  143.9975  157.8195 C.ar    1  UNL1        0.0366
     12 C         141.8833  145.8957  156.3924 C.3     1  UNL1        0.2525
     13 O         140.8546  146.2078  157.4385 O.3     1  UNL1       -0.4714
     14 C         137.9407  138.2545  162.0840 C.3     1  UNL1        0.0768
     15 C         138.6853  137.3988  163.0655 C.3     1  UNL1        0.0438
     16 C         140.0663  137.7878  163.5031 C.ar    1  UNL1       -0.0176
     17 C         140.3015  138.2688  164.9044 C.ar    1  UNL1       -0.0009
     18 C         141.6825  138.6578  165.3419 C.ar    1  UNL1        0.0397
     19 C         142.8284  138.5657  164.3783 C.ar    1  UNL1        0.1724
     20 C         142.5932  138.0847  162.9771 C.ar    1  UNL1        0.1721
     21 C         141.2121  137.6957  162.5395 C.ar    1  UNL1        0.0358
     22 O         144.2094  138.9547  164.8158 O.3     1  UNL1       -0.4684
     23 C         144.8317  140.2180  164.2995 C.3     1  UNL1        0.2526
     24 O         143.7390  137.9927  162.0135 O.3     1  UNL1       -0.4684
     25 C         143.4894  138.1040  160.5386 C.3     1  UNL1        0.2526
     26 C         138.5076  143.3578  163.3149 C.3     1  UNL1        0.0871
     27 C         139.2947  143.4758  164.5863 C.2     1  UNL1        0.2262
     28 O         139.3190  144.7750  165.3356 O.2     1  UNL1       -0.2748
     29 N         140.0576  142.2945  165.1085 N.am    1  UNL1       -0.2839
     30 H         140.0417  141.4418  164.6168 H       1  UNL1        0.1549
     31 C         140.8447  142.4125  166.3799 C.ar    1  UNL1        0.0511
     32 C         142.3331  142.2276  166.3605 C.ar    1  UNL1        0.0147
     33 C         143.1203  142.3456  167.6319 C.ar    1  UNL1        0.0021
     34 C         142.4190  142.6485  168.9228 C.ar    1  UNL1        0.0115
     35 C         140.9306  142.8335  168.9422 C.ar    1  UNL1        0.0589
     36 CL        140.2292  143.1365  170.2332 Cl      1  UNL1       -0.0822
     37 C         140.1435  142.7155  167.6708 C.ar    1  UNL1        0.0261
@<TRIPOS>BOND
     1    12    13    1
     2    13     6    1
     3     6     7   ar
     4     7     8   ar
     5     8     9   ar
     6     1     9    1
     7     1     2    1
     8     2     3    1
     9     3    14    1
    10    14    15    1
    11    15    16    1
    12    16    17   ar
    13    17    18   ar
    14    18    19   ar
    15    19    22    1
    16    22    23    1
    17    19    20   ar
    18    20    24    1
    19    24    25    1
    20    20    21   ar
    21     3     4    1
    22     4     5    1
    23     5    26    1
    24    26    27    1
    25    27    28    2
    26    27    29   am
    27    29    31    1
    28    31    32   ar
    29    32    33   ar
    30    33    34   ar
    31    34    35   ar
    32    35    36    1
    33    35    37   ar
    34     9    10   ar
    35    10    11   ar
    36    11     6   ar
    37     5     1    1
    38    37    31   ar
    39    21    16   ar
    40    29    30    1
@<TRIPOS>MOLECULE
*****
 37 40 0 0 0
SMALL
GASTEIGER

@<TRIPOS>ATOM
      1 C         142.1468  138.7264  159.2252 C.3     1  UNL1        0.0401
      2 C         142.3680  137.8626  158.0190 C.3     1  UNL1        0.0765
      3 N         143.2351  138.6211  157.0584 N.3     1  UNL1       -0.2721
      4 C         143.5499  139.9537  157.6709 C.3     1  UNL1        0.0729
      5 C         142.8772  140.0188  159.0101 C.3     1  UNL1        0.0305
      6 C         139.7182  137.6329  162.8524 C.ar    1  UNL1        0.1387
      7 C         139.0296  138.0428  161.5844 C.ar    1  UNL1        0.0366
      8 C         139.8391  138.4074  160.3754 C.ar    1  UNL1       -0.0011
      9 C         141.3372  138.3619  160.4343 C.ar    1  UNL1       -0.0209
     10 C         142.0258  137.9520  161.7022 C.ar    1  UNL1       -0.0011
     11 C         141.2163  137.5875  162.9113 C.ar    1  UNL1        0.0366
     12 C         138.7523  138.2514  165.1836 C.3     1  UNL1        0.2525
     13 O         138.9087  137.2684  164.0614 O.3     1  UNL1       -0.4714
     14 C         143.7050  138.1327  155.7203 C.3     1  UNL1        0.0768
     15 C         144.3428  136.7807  155.5970 C.3     1  UNL1        0.0438
     16 C         143.4860  135.5561  155.4692 C.ar    1  UNL1       -0.0176
     17 C         142.3954  135.5079  154.4403 C.ar    1  UNL1       -0.0009
     18 C         141.5386  134.2834  154.3125 C.ar    1  UNL1        0.0397
     19 C         141.7723  133.1070  155.2134 C.ar    1  UNL1        0.1724
     20 C         142.8629  133.1552  156.2421 C.ar    1  UNL1        0.1721
     21 C         143.7198  134.3798  156.3700 C.ar    1  UNL1        0.0358
     22 O         140.9155  131.8825  155.0855 O.3     1  UNL1       -0.4684
     23 C         140.5137  131.3867  153.7280 C.3     1  UNL1        0.2526
     24 O         143.0966  131.9789  157.1430 O.3     1  UNL1       -0.4684
     25 C         144.4879  131.6424  157.5914 C.3     1  UNL1        0.2526
     26 C         142.9264  141.1735  159.9662 C.3     1  UNL1        0.0871
     27 C         141.6658  141.6665  160.6123 C.2     1  UNL1        0.2262
     28 O         140.5814  142.2751  159.7734 O.2     1  UNL1       -0.2748
     29 N         141.4894  141.5510  162.0974 N.am    1  UNL1       -0.2839
     30 H         142.2010  141.1515  162.6481 H       1  UNL1        0.1549
     31 C         140.2286  142.0440  162.7435 C.ar    1  UNL1        0.0511
     32 C         138.9402  141.3049  162.5347 C.ar    1  UNL1        0.0147
     33 C         137.6795  141.7980  163.1808 C.ar    1  UNL1        0.0021
     34 C         137.7071  143.0301  164.0358 C.ar    1  UNL1        0.0115
     35 C         138.9956  143.7692  164.2446 C.ar    1  UNL1        0.0589
     36 CL        139.0233  145.0014  165.0997 Cl      1  UNL1       -0.0822
     37 C         140.2563  143.2761  163.5985 C.ar    1  UNL1        0.0261
@<TRIPOS>BOND
     1    12    13    1
     2    13     6    1
     3     6     7   ar
     4     7     8   ar
     5     8     9   ar
     6     1     9    1
     7     1     2    1
     8     2     3    1
     9     3    14    1
    10    14    15    1
    11    15    16    1
    12    16    17   ar
    13    17    18   ar
    14    18    19   ar
    15    19    22    1
    16    22    23    1
    17    19    20   ar
    18    20    24    1
    19    24    25    1
    20    20    21   ar
    21     3     4    1
    22     4     5    1
    23     5    26    1
    24    26    27    1
    25    27    28    2
    26    27    29   am
    27    29    31    1
    28    31    32   ar
    29    32    33   ar
    30    33    34   ar
    31    34    35   ar
    32    35    36    1
    33    35    37   ar
    34     9    10   ar
    35    10    11   ar
    36    11     6   ar
    37     5     1    1
    38    37    31   ar
    39    21    16   ar
    40    29    30    1
@<TRIPOS>MOLECULE
*****
 37 40 0 0 0
SMALL
GASTEIGER

@<TRIPOS>ATOM
      1 C         141.8156  138.3293  158.8148 C.3     1  UNL1        0.0401
      2 C         142.3549  137.5294  157.6662 C.3     1  UNL1        0.0765
      3 N         141.2202  137.2422  156.7281 N.3     1  UNL1       -0.2721
      4 C         139.9796  137.8647  157.2969 C.3     1  UNL1        0.0729
      5 C         140.3476  138.5366  158.5866 C.3     1  UNL1        0.0305
      6 C         144.1856  139.8418  162.3285 C.ar    1  UNL1        0.1387
      7 C         143.7214  140.7974  161.2697 C.ar    1  UNL1        0.0366
      8 C         142.9314  140.2933  160.0985 C.ar    1  UNL1       -0.0011
      9 C         142.6056  138.8335  159.9861 C.ar    1  UNL1       -0.0209
     10 C         143.0698  137.8778  161.0449 C.ar    1  UNL1       -0.0011
     11 C         143.8598  138.3819  162.2161 C.ar    1  UNL1        0.0366
     12 C         145.7343  141.6354  163.3934 C.3     1  UNL1        0.2525
     13 O         144.9756  140.3459  163.4997 O.3     1  UNL1       -0.4714
     14 C         141.3103  136.4685  155.4462 C.3     1  UNL1        0.0768
     15 C         142.5528  135.6921  155.1246 C.3     1  UNL1        0.0438
     16 C         142.7721  134.3405  155.7371 C.ar    1  UNL1       -0.0176
     17 C         143.7713  134.1715  156.8431 C.ar    1  UNL1       -0.0009
     18 C         143.9907  132.8199  157.4555 C.ar    1  UNL1        0.0397
     19 C         143.2109  131.6373  156.9620 C.ar    1  UNL1        0.1724
     20 C         142.2118  131.8064  155.8560 C.ar    1  UNL1        0.1721
     21 C         141.9924  133.1580  155.2436 C.ar    1  UNL1        0.0358
     22 O         143.4302  130.2857  157.5744 O.3     1  UNL1       -0.4684
     23 C         144.4399  129.3484  156.9811 C.3     1  UNL1        0.2526
     24 O         141.4320  130.6238  155.3625 O.3     1  UNL1       -0.4684
     25 C         141.3766  130.3218  153.8943 C.3     1  UNL1        0.2526
     26 C         139.4119  139.2844  159.4894 C.3     1  UNL1        0.0871
     27 C         139.4402  139.0382  160.9687 C.2     1  UNL1        0.2262
     28 O         139.3848  137.6353  161.4968 O.2     1  UNL1       -0.2748
     29 N         139.5239  140.1949  161.9201 N.am    1  UNL1       -0.2839
     30 H         139.5603  141.1156  161.5736 H       1  UNL1        0.1549
     31 C         139.5522  139.9486  163.3995 C.ar    1  UNL1        0.0511
     32 C         138.2788  139.9897  164.1912 C.ar    1  UNL1        0.0147
     33 C         138.3071  139.7434  165.6705 C.ar    1  UNL1        0.0021
     34 C         139.6087  139.4561  166.3583 C.ar    1  UNL1        0.0115
     35 C         140.8822  139.4150  165.5667 C.ar    1  UNL1        0.0589
     36 CL        142.1839  139.1277  166.2544 Cl      1  UNL1       -0.0822
     37 C         140.8539  139.6613  164.0873 C.ar    1  UNL1        0.0261
@<TRIPOS>BOND
     1    12    13    1
     2    13     6    1
     3     6     7   ar
     4     7     8   ar
     5     8     9   ar
     6     1     9    1
     7     1     2    1
     8     2     3    1
     9     3    14    1
    10    14    15    1
    11    15    16    1
    12    16    17   ar
    13    17    18   ar
    14    18    19   ar
    15    19    22    1
    16    22    23    1
    17    19    20   ar
    18    20    24    1
    19    24    25    1
    20    20    21   ar
    21     3     4    1
    22     4     5    1
    23     5    26    1
    24    26    27    1
    25    27    28    2
    26    27    29   am
    27    29    31    1
    28    31    32   ar
    29    32    33   ar
    30    33    34   ar
    31    34    35   ar
    32    35    36    1
    33    35    37   ar
    34     9    10   ar
    35    10    11   ar
    36    11     6   ar
    37     5     1    1
    38    37    31   ar
    39    21    16   ar
    40    29    30    1
@<TRIPOS>MOLECULE
*****
 37 40 0 0 0
SMALL
GASTEIGER

@<TRIPOS>ATOM
      1 C         138.0938  140.9176  158.5183 C.3     1  UNL1        0.0401
      2 C         137.1192  140.5673  157.4332 C.3     1  UNL1        0.0765
      3 N         136.8657  141.8028  156.6212 N.3     1  UNL1       -0.2721
      4 C         137.6837  142.9167  157.2043 C.3     1  UNL1        0.0729
      5 C         138.4427  142.3696  158.3768 C.3     1  UNL1        0.0305
      6 C         139.6907  138.1063  161.6482 C.ar    1  UNL1        0.1387
      7 C         138.2635  138.5639  161.7090 C.ar    1  UNL1        0.0366
      8 C         137.7312  139.5010  160.6657 C.ar    1  UNL1       -0.0011
      9 C         138.6261  139.9805  159.5616 C.ar    1  UNL1       -0.0209
     10 C         140.0533  139.5229  159.5007 C.ar    1  UNL1       -0.0011
     11 C         140.5856  138.5858  160.5441 C.ar    1  UNL1        0.0366
     12 C         141.4895  137.5023  163.4229 C.3     1  UNL1        0.2525
     13 O         140.2229  137.1692  162.6915 O.3     1  UNL1       -0.4714
     14 C         135.9543  141.9062  155.4343 C.3     1  UNL1        0.0768
     15 C         135.1959  140.7006  154.9639 C.3     1  UNL1        0.0438
     16 C         133.8213  140.4242  155.4969 C.ar    1  UNL1       -0.0176
     17 C         133.5654  139.1871  156.3058 C.ar    1  UNL1       -0.0009
     18 C         132.1908  138.9107  156.8389 C.ar    1  UNL1        0.0397
     19 C         131.0722  139.8713  156.5631 C.ar    1  UNL1        0.1724
     20 C         131.3282  141.1083  155.7543 C.ar    1  UNL1        0.1721
     21 C         132.7028  141.3847  155.2212 C.ar    1  UNL1        0.0358
     22 O         129.6976  139.5949  157.0962 O.3     1  UNL1       -0.4684
     23 C         129.5259  139.0643  158.4886 C.3     1  UNL1        0.2526
     24 O         130.2096  142.0689  155.4785 O.3     1  UNL1       -0.4684
     25 C         129.2661  141.8147  154.3404 C.3     1  UNL1        0.2526
     26 C         139.3852  143.1394  159.2538 C.3     1  UNL1        0.0871
     27 C         139.1224  143.2445  160.7268 C.2     1  UNL1        0.2262
     28 O         137.7331  143.0467  161.2568 O.2     1  UNL1       -0.2748
     29 N         140.2488  143.5474  161.6700 N.am    1  UNL1       -0.2839
     30 H         141.1606  143.6773  161.3222 H       1  UNL1        0.1549
     31 C         139.9859  143.6525  163.1430 C.ar    1  UNL1        0.0511
     32 C         139.1399  144.7706  163.6760 C.ar    1  UNL1        0.0147
     33 C         138.8771  144.8757  165.1491 C.ar    1  UNL1        0.0021
     34 C         139.4601  143.8626  166.0891 C.ar    1  UNL1        0.0115
     35 C         140.3061  142.7445  165.5561 C.ar    1  UNL1        0.0589
     36 CL        140.8893  141.7314  166.4962 Cl      1  UNL1       -0.0822
     37 C         140.5690  142.6395  164.0831 C.ar    1  UNL1        0.0261
@<TRIPOS>BOND
     1    12    13    1
     2    13     6    1
     3     6     7   ar
     4     7     8   ar
     5     8     9   ar
     6     1     9    1
     7     1     2    1
     8     2     3    1
     9     3    14    1
    10    14    15    1
    11    15    16    1
    12    16    17   ar
    13    17    18   ar
    14    18    19   ar
    15    19    22    1
    16    22    23    1
    17    19    20   ar
    18    20    24    1
    19    24    25    1
    20    20    21   ar
    21     3     4    1
    22     4     5    1
    23     5    26    1
    24    26    27    1
    25    27    28    2
    26    27    29   am
    27    29    31    1
    28    31    32   ar
    29    32    33   ar
    30    33    34   ar
    31    34    35   ar
    32    35    36    1
    33    35    37   ar
    34     9    10   ar
    35    10    11   ar
    36    11     6   ar
    37     5     1    1
    38    37    31   ar
    39    21    16   ar
    40    29    30    1
