@<TRIPOS>MOLECULE
*****
 39 42 0 0 0
SMALL
GASTEIGER

@<TRIPOS>ATOM
      1 O         143.9653  139.5706  159.5080 O.2     1  UNL1       -0.2506
      2 C         142.8867  139.3143  160.5184 C.2     1  UNL1        0.3267
      3 N         141.6312  138.6020  160.1108 N.am    1  UNL1       -0.2669
      4 N         143.0638  139.7702  161.9365 N.am    1  UNL1       -0.1395
      5 H         140.9233  138.4337  160.7740 H       1  UNL1        0.1565
      6 C         141.4542  138.1460  158.6928 C.ar    1  UNL1        0.0518
      7 C         142.5498  137.3844  158.0075 C.ar    1  UNL1        0.0178
      8 C         142.3727  136.9285  156.5895 C.ar    1  UNL1        0.0382
      9 C         141.1001  137.2341  155.8568 C.ar    1  UNL1        0.1386
     10 C         140.0044  137.9957  156.5420 C.ar    1  UNL1        0.0382
     11 C         140.1815  138.4516  157.9600 C.ar    1  UNL1        0.0178
     12 O         140.9230  136.7781  154.4387 O.3     1  UNL1       -0.4755
     13 C         142.0975  136.2529  153.6677 C.3     1  UNL1        0.2054
     14 C         142.4767  134.8053  153.7723 C.3     1  UNL1        0.0477
     15 C         141.4370  133.7807  154.1175 C.3     1  UNL1        0.0085
     16 C         141.4517  133.1219  155.4649 C.3     1  UNL1        0.0265
     17 C         142.7562  132.7345  156.0962 C.ar    1  UNL1       -0.0222
     18 C         143.2584  133.4793  157.2975 C.ar    1  UNL1       -0.0043
     19 C         144.5628  133.0920  157.9288 C.ar    1  UNL1       -0.0003
     20 C         145.3649  131.9599  157.3588 C.ar    1  UNL1       -0.0000
     21 C         144.8626  131.2151  156.1576 C.ar    1  UNL1       -0.0003
     22 C         143.5583  131.6024  155.5263 C.ar    1  UNL1       -0.0043
     23 S         141.9852  139.5139  162.9469 S.O2    1  UNL1        0.0801
     24 O         141.0950  140.4970  162.2461 O.2     1  UNL1       -0.1496
     25 O         142.8753  138.5308  163.6477 O.2     1  UNL1       -0.1496
     26 C         140.9065  139.2576  163.9573 C.ar    1  UNL1        0.1256
     27 C         140.5338  140.3245  164.9435 C.ar    1  UNL1        0.0211
     28 C         139.4552  140.0682  165.9539 C.ar    1  UNL1        0.0128
     29 C         138.7493  138.7449  165.9781 C.ar    1  UNL1        0.0578
     30 CL        137.6707  138.4886  166.9885 Cl      1  UNL1       -0.0822
     31 C         139.1220  137.6779  164.9918 C.ar    1  UNL1        0.0128
     32 C         140.2006  137.9342  163.9814 C.ar    1  UNL1        0.0211
     33 C         144.3193  140.4825  162.3441 C.3     1  UNL1        0.1467
     34 C         144.2371  141.8114  163.0348 C.ar    1  UNL1       -0.0005
     35 C         143.8887  143.0430  162.2526 C.ar    1  UNL1       -0.0026
     36 C         143.8065  144.3720  162.9433 C.ar    1  UNL1       -0.0003
     37 C         144.0727  144.4694  164.4163 C.ar    1  UNL1       -0.0000
     38 C         144.4212  143.2379  165.1985 C.ar    1  UNL1       -0.0003
     39 C         144.5034  141.9089  164.5078 C.ar    1  UNL1       -0.0026
@<TRIPOS>BOND
     1     1     2    2
     2     2     3   am
     3     3     6    1
     4     6     7   ar
     5     7     8   ar
     6     8     9   ar
     7     9    12    1
     8    12    13    1
     9    13    14    1
    10    14    15    1
    11    15    16    1
    12    16    17    1
    13    17    18   ar
    14    18    19   ar
    15    19    20   ar
    16    20    21   ar
    17    21    22   ar
    18     9    10   ar
    19    10    11   ar
    20     2     4   am
    21     4    33    1
    22    33    34    1
    23    34    35   ar
    24    35    36   ar
    25    36    37   ar
    26    37    38   ar
    27    38    39   ar
    28     4    23    1
    29    23    24    2
    30    23    25    2
    31    23    26    1
    32    26    27   ar
    33    27    28   ar
    34    28    29   ar
    35    29    30    1
    36    29    31   ar
    37    31    32   ar
    38    11     6   ar
    39    39    34   ar
    40    32    26   ar
    41    22    17   ar
    42     3     5    1
@<TRIPOS>MOLECULE
*****
 39 42 0 0 0
SMALL
GASTEIGER

@<TRIPOS>ATOM
      1 O         143.0182  140.7033  163.5749 O.2     1  UNL1       -0.2506
      2 C         142.9842  140.3218  162.1246 C.2     1  UNL1        0.3267
      3 N         141.9790  139.3217  161.6356 N.am    1  UNL1       -0.2669
      4 N         143.9555  140.9405  161.1634 N.am    1  UNL1       -0.1395
      5 H         141.9568  139.0713  160.6837 H       1  UNL1        0.1565
      6 C         141.0077  138.7030  162.5968 C.ar    1  UNL1        0.0518
      7 C         141.5014  137.7834  163.6742 C.ar    1  UNL1        0.0178
      8 C         140.5301  137.1648  164.6353 C.ar    1  UNL1        0.0382
      9 C         139.0652  137.4657  164.5191 C.ar    1  UNL1        0.1386
     10 C         138.5715  138.3852  163.4417 C.ar    1  UNL1        0.0382
     11 C         139.5428  139.0038  162.4806 C.ar    1  UNL1        0.0178
     12 O         138.0939  136.8470  165.4803 O.3     1  UNL1       -0.4755
     13 C         137.7413  137.5588  166.7527 C.3     1  UNL1        0.2054
     14 C         137.8325  139.0543  166.8254 C.3     1  UNL1        0.0477
     15 C         139.1098  139.7074  167.2637 C.3     1  UNL1        0.0085
     16 C         139.9488  140.4554  166.2705 C.3     1  UNL1        0.0265
     17 C         139.4393  141.7311  165.6681 C.ar    1  UNL1       -0.0222
     18 C         140.1316  143.0287  165.9631 C.ar    1  UNL1       -0.0043
     19 C         139.6221  144.3045  165.3607 C.ar    1  UNL1       -0.0003
     20 C         138.4204  144.2826  164.4633 C.ar    1  UNL1       -0.0000
     21 C         137.7281  142.9850  164.1683 C.ar    1  UNL1       -0.0003
     22 C         138.2376  141.7093  164.7707 C.ar    1  UNL1       -0.0043
     23 S         143.9216  140.5590  159.7131 S.O2    1  UNL1        0.0801
     24 O         144.3022  139.1537  160.0739 O.2     1  UNL1       -0.1496
     25 O         143.5409  141.9643  159.3524 O.2     1  UNL1       -0.1496
     26 C         143.8876  140.1775  158.2629 C.ar    1  UNL1        0.1256
     27 C         144.7872  140.8714  157.2835 C.ar    1  UNL1        0.0211
     28 C         144.7532  140.4899  155.8333 C.ar    1  UNL1        0.0128
     29 C         143.8196  139.4144  155.3623 C.ar    1  UNL1        0.0578
     30 CL        143.7857  139.0329  153.9121 Cl      1  UNL1       -0.0822
     31 C         142.9200  138.7205  156.3417 C.ar    1  UNL1        0.0128
     32 C         142.9539  139.1020  157.7920 C.ar    1  UNL1        0.0211
     33 C         144.9607  141.9407  161.6525 C.3     1  UNL1        0.1467
     34 C         144.5798  142.9288  162.7147 C.ar    1  UNL1       -0.0005
     35 C         145.1040  142.7684  164.1110 C.ar    1  UNL1       -0.0026
     36 C         144.7231  143.7565  165.1733 C.ar    1  UNL1       -0.0003
     37 C         143.8180  144.9051  164.8394 C.ar    1  UNL1       -0.0000
     38 C         143.2937  145.0655  163.4432 C.ar    1  UNL1       -0.0003
     39 C         143.6746  144.0774  162.3808 C.ar    1  UNL1       -0.0026
@<TRIPOS>BOND
     1     1     2    2
     2     2     3   am
     3     3     6    1
     4     6     7   ar
     5     7     8   ar
     6     8     9   ar
     7     9    12    1
     8    12    13    1
     9    13    14    1
    10    14    15    1
    11    15    16    1
    12    16    17    1
    13    17    18   ar
    14    18    19   ar
    15    19    20   ar
    16    20    21   ar
    17    21    22   ar
    18     9    10   ar
    19    10    11   ar
    20     2     4   am
    21     4    33    1
    22    33    34    1
    23    34    35   ar
    24    35    36   ar
    25    36    37   ar
    26    37    38   ar
    27    38    39   ar
    28     4    23    1
    29    23    24    2
    30    23    25    2
    31    23    26    1
    32    26    27   ar
    33    27    28   ar
    34    28    29   ar
    35    29    30    1
    36    29    31   ar
    37    31    32   ar
    38    11     6   ar
    39    39    34   ar
    40    32    26   ar
    41    22    17   ar
    42     3     5    1
@<TRIPOS>MOLECULE
*****
 39 42 0 0 0
SMALL
GASTEIGER

@<TRIPOS>ATOM
      1 O         141.9106  137.6928  158.0514 O.2     1  UNL1       -0.2506
      2 C         142.9652  138.6316  157.5450 C.2     1  UNL1        0.3267
      3 N         143.6818  139.5400  158.4997 N.am    1  UNL1       -0.2669
      4 N         143.3032  138.6620  156.0839 N.am    1  UNL1       -0.1395
      5 H         144.3739  140.1561  158.1673 H       1  UNL1        0.1565
      6 C         143.3437  139.5095  159.9608 C.ar    1  UNL1        0.0518
      7 C         142.2463  140.3814  160.4950 C.ar    1  UNL1        0.0178
      8 C         141.9083  140.3510  161.9561 C.ar    1  UNL1        0.0382
      9 C         142.6678  139.4486  162.8830 C.ar    1  UNL1        0.1386
     10 C         143.7652  138.5768  162.3487 C.ar    1  UNL1        0.0382
     11 C         144.1032  138.6072  160.8877 C.ar    1  UNL1        0.0178
     12 O         142.3297  139.4182  164.3441 O.3     1  UNL1       -0.4755
     13 C         141.1476  140.1862  164.8566 C.3     1  UNL1        0.2054
     14 C         141.3192  141.1664  165.9790 C.3     1  UNL1        0.0477
     15 C         142.6743  141.3835  166.5845 C.3     1  UNL1        0.0085
     16 C         143.5307  142.5230  166.1174 C.3     1  UNL1        0.0265
     17 C         143.9574  142.6009  164.6814 C.ar    1  UNL1       -0.0222
     18 C         143.2322  143.5076  163.7317 C.ar    1  UNL1       -0.0043
     19 C         143.6589  143.5857  162.2958 C.ar    1  UNL1       -0.0003
     20 C         144.8107  142.7570  161.8096 C.ar    1  UNL1       -0.0000
     21 C         145.5359  141.8502  162.7594 C.ar    1  UNL1       -0.0003
     22 C         145.1093  141.7722  164.1952 C.ar    1  UNL1       -0.0043
     23 S         144.3578  139.6008  155.5774 S.O2    1  UNL1        0.0801
     24 O         143.3266  140.6802  155.4308 O.2     1  UNL1       -0.1496
     25 O         145.3891  138.5215  155.7241 O.2     1  UNL1       -0.1496
     26 C         145.4124  140.5397  155.0710 C.ar    1  UNL1        0.1256
     27 C         146.2730  141.2943  156.0405 C.ar    1  UNL1        0.0211
     28 C         147.3276  142.2331  155.5341 C.ar    1  UNL1        0.0128
     29 C         147.5216  142.4173  154.0582 C.ar    1  UNL1        0.0578
     30 CL        148.5762  143.3561  153.5518 Cl      1  UNL1       -0.0822
     31 C         146.6610  141.6627  153.0886 C.ar    1  UNL1        0.0128
     32 C         145.6064  140.7239  153.5950 C.ar    1  UNL1        0.0211
     33 C         142.5867  137.7537  155.1292 C.3     1  UNL1        0.1467
     34 C         142.5948  136.2709  155.3557 C.ar    1  UNL1       -0.0005
     35 C         143.8489  135.5895  155.8172 C.ar    1  UNL1       -0.0026
     36 C         143.8570  134.1067  156.0436 C.ar    1  UNL1       -0.0003
     37 C         142.6110  133.3053  155.8086 C.ar    1  UNL1       -0.0000
     38 C         141.3569  133.9867  155.3472 C.ar    1  UNL1       -0.0003
     39 C         141.3488  135.4695  155.1207 C.ar    1  UNL1       -0.0026
@<TRIPOS>BOND
     1     1     2    2
     2     2     3   am
     3     3     6    1
     4     6     7   ar
     5     7     8   ar
     6     8     9   ar
     7     9    12    1
     8    12    13    1
     9    13    14    1
    10    14    15    1
    11    15    16    1
    12    16    17    1
    13    17    18   ar
    14    18    19   ar
    15    19    20   ar
    16    20    21   ar
    17    21    22   ar
    18     9    10   ar
    19    10    11   ar
    20     2     4   am
    21     4    33    1
    22    33    34    1
    23    34    35   ar
    24    35    36   ar
    25    36    37   ar
    26    37    38   ar
    27    38    39   ar
    28     4    23    1
    29    23    24    2
    30    23    25    2
    31    23    26    1
    32    26    27   ar
    33    27    28   ar
    34    28    29   ar
    35    29    30    1
    36    29    31   ar
    37    31    32   ar
    38    11     6   ar
    39    39    34   ar
    40    32    26   ar
    41    22    17   ar
    42     3     5    1
@<TRIPOS>MOLECULE
*****
 39 42 0 0 0
SMALL
GASTEIGER

@<TRIPOS>ATOM
      1 O         137.9658  141.9734  162.3004 O.2     1  UNL1       -0.2506
      2 C         138.8279  140.9690  161.5947 C.2     1  UNL1        0.3267
      3 N         139.4741  139.8592  162.3696 N.am    1  UNL1       -0.2669
      4 N         139.0436  141.0745  160.1140 N.am    1  UNL1       -0.1395
      5 H         140.0399  139.2000  161.9064 H       1  UNL1        0.1565
      6 C         139.2583  139.7537  163.8503 C.ar    1  UNL1        0.0518
      7 C         139.6251  140.9002  164.7452 C.ar    1  UNL1        0.0178
      8 C         139.4093  140.7947  166.2258 C.ar    1  UNL1        0.0382
      9 C         138.8267  139.5426  166.8115 C.ar    1  UNL1        0.1386
     10 C         138.4600  138.3961  165.9166 C.ar    1  UNL1        0.0382
     11 C         138.6757  138.5017  164.4360 C.ar    1  UNL1        0.0178
     12 O         138.6110  139.4371  168.2922 O.3     1  UNL1       -0.4755
     13 C         139.2407  140.4379  169.2151 C.3     1  UNL1        0.2054
     14 C         140.1942  139.9809  170.2791 C.3     1  UNL1        0.0477
     15 C         141.6727  140.0252  170.0306 C.3     1  UNL1        0.0085
     16 C         142.2713  139.2130  168.9207 C.3     1  UNL1        0.0265
     17 C         142.6537  139.8741  167.6296 C.ar    1  UNL1       -0.0222
     18 C         142.9521  139.0396  166.4194 C.ar    1  UNL1       -0.0043
     19 C         143.3345  139.7005  165.1283 C.ar    1  UNL1       -0.0003
     20 C         143.4184  141.1960  165.0475 C.ar    1  UNL1       -0.0000
     21 C         143.1200  142.0305  166.2577 C.ar    1  UNL1       -0.0003
     22 C         142.7376  141.3695  167.5487 C.ar    1  UNL1       -0.0043
     23 S         139.9057  140.0701  159.4083 S.O2    1  UNL1        0.0801
     24 O         141.1312  140.7244  159.9740 O.2     1  UNL1       -0.1496
     25 O         138.6802  139.4158  158.8425 O.2     1  UNL1       -0.1496
     26 C         140.7678  139.0657  158.7026 C.ar    1  UNL1        0.1256
     27 C         140.3847  138.5760  157.3375 C.ar    1  UNL1        0.0211
     28 C         141.2468  137.5716  156.6318 C.ar    1  UNL1        0.0128
     29 C         142.4919  137.0569  157.2912 C.ar    1  UNL1        0.0578
     30 CL        143.3539  136.0525  156.5855 Cl      1  UNL1       -0.0822
     31 C         142.8750  137.5466  158.6563 C.ar    1  UNL1        0.0128
     32 C         142.0129  138.5510  159.3620 C.ar    1  UNL1        0.0211
     33 C         138.3974  142.1844  159.3391 C.3     1  UNL1        0.1467
     34 C         139.2317  143.3104  158.8044 C.ar    1  UNL1       -0.0005
     35 C         140.1054  144.1024  159.7315 C.ar    1  UNL1       -0.0026
     36 C         140.9397  145.2285  159.1968 C.ar    1  UNL1       -0.0003
     37 C         140.9003  145.5626  157.7350 C.ar    1  UNL1       -0.0000
     38 C         140.0267  144.7706  156.8079 C.ar    1  UNL1       -0.0003
     39 C         139.1924  143.6445  157.3426 C.ar    1  UNL1       -0.0026
@<TRIPOS>BOND
     1     1     2    2
     2     2     3   am
     3     3     6    1
     4     6     7   ar
     5     7     8   ar
     6     8     9   ar
     7     9    12    1
     8    12    13    1
     9    13    14    1
    10    14    15    1
    11    15    16    1
    12    16    17    1
    13    17    18   ar
    14    18    19   ar
    15    19    20   ar
    16    20    21   ar
    17    21    22   ar
    18     9    10   ar
    19    10    11   ar
    20     2     4   am
    21     4    33    1
    22    33    34    1
    23    34    35   ar
    24    35    36   ar
    25    36    37   ar
    26    37    38   ar
    27    38    39   ar
    28     4    23    1
    29    23    24    2
    30    23    25    2
    31    23    26    1
    32    26    27   ar
    33    27    28   ar
    34    28    29   ar
    35    29    30    1
    36    29    31   ar
    37    31    32   ar
    38    11     6   ar
    39    39    34   ar
    40    32    26   ar
    41    22    17   ar
    42     3     5    1
@<TRIPOS>MOLECULE
*****
 39 42 0 0 0
SMALL
GASTEIGER

@<TRIPOS>ATOM
      1 O         141.8189  137.6686  158.1524 O.2     1  UNL1       -0.2506
      2 C         142.8918  138.5763  157.6279 C.2     1  UNL1        0.3267
      3 N         143.6267  139.4884  158.5649 N.am    1  UNL1       -0.2669
      4 N         143.2296  138.5721  156.1664 N.am    1  UNL1       -0.1395
      5 H         144.3309  140.0841  158.2207 H       1  UNL1        0.1565
      6 C         143.2889  139.4926  160.0264 C.ar    1  UNL1        0.0518
      7 C         142.1288  140.3018  160.5257 C.ar    1  UNL1        0.0178
      8 C         141.7910  140.3061  161.9871 C.ar    1  UNL1        0.0382
      9 C         142.6134  139.5012  162.9493 C.ar    1  UNL1        0.1386
     10 C         143.7736  138.6920  162.4501 C.ar    1  UNL1        0.0382
     11 C         144.1113  138.6878  160.9886 C.ar    1  UNL1        0.0178
     12 O         142.2756  139.5055  164.4108 O.3     1  UNL1       -0.4755
     13 C         141.9913  138.2139  165.1187 C.3     1  UNL1        0.2054
     14 C         141.0677  137.2069  164.4998 C.3     1  UNL1        0.0477
     15 C         139.5824  137.3805  164.6162 C.3     1  UNL1        0.0085
     16 C         138.7999  137.9383  163.4644 C.3     1  UNL1        0.0265
     17 C         138.4625  139.3994  163.4245 C.ar    1  UNL1       -0.0222
     18 C         138.1133  140.0531  162.1204 C.ar    1  UNL1       -0.0043
     19 C         137.7759  141.5141  162.0804 C.ar    1  UNL1       -0.0003
     20 C         137.7877  142.3213  163.3445 C.ar    1  UNL1       -0.0000
     21 C         138.1369  141.6676  164.6487 C.ar    1  UNL1       -0.0003
     22 C         138.4743  140.2067  164.6886 C.ar    1  UNL1       -0.0043
     23 S         144.3024  139.4798  155.6420 S.O2    1  UNL1        0.0801
     24 O         143.3261  140.6183  155.6155 O.2     1  UNL1       -0.1496
     25 O         145.2787  138.3413  155.6685 O.2     1  UNL1       -0.1496
     26 C         145.3752  140.3876  155.1175 C.ar    1  UNL1        0.1256
     27 C         146.1146  141.2949  156.0556 C.ar    1  UNL1        0.0211
     28 C         147.1875  142.2027  155.5311 C.ar    1  UNL1        0.0128
     29 C         147.5208  142.2031  154.0687 C.ar    1  UNL1        0.0578
     30 CL        148.5937  143.1108  153.5442 Cl      1  UNL1       -0.0822
     31 C         146.7814  141.2957  153.1306 C.ar    1  UNL1        0.0128
     32 C         145.7086  140.3879  153.6550 C.ar    1  UNL1        0.0211
     33 C         142.4946  137.6600  155.2295 C.3     1  UNL1        0.1467
     34 C         142.5495  136.1748  155.4315 C.ar    1  UNL1       -0.0005
     35 C         141.3408  135.3337  155.1456 C.ar    1  UNL1       -0.0026
     36 C         141.3957  133.8484  155.3477 C.ar    1  UNL1       -0.0003
     37 C         142.6594  133.2041  155.8356 C.ar    1  UNL1       -0.0000
     38 C         143.8681  134.0451  156.1214 C.ar    1  UNL1       -0.0003
     39 C         143.8132  135.5304  155.9194 C.ar    1  UNL1       -0.0026
@<TRIPOS>BOND
     1     1     2    2
     2     2     3   am
     3     3     6    1
     4     6     7   ar
     5     7     8   ar
     6     8     9   ar
     7     9    12    1
     8    12    13    1
     9    13    14    1
    10    14    15    1
    11    15    16    1
    12    16    17    1
    13    17    18   ar
    14    18    19   ar
    15    19    20   ar
    16    20    21   ar
    17    21    22   ar
    18     9    10   ar
    19    10    11   ar
    20     2     4   am
    21     4    33    1
    22    33    34    1
    23    34    35   ar
    24    35    36   ar
    25    36    37   ar
    26    37    38   ar
    27    38    39   ar
    28     4    23    1
    29    23    24    2
    30    23    25    2
    31    23    26    1
    32    26    27   ar
    33    27    28   ar
    34    28    29   ar
    35    29    30    1
    36    29    31   ar
    37    31    32   ar
    38    11     6   ar
    39    39    34   ar
    40    32    26   ar
    41    22    17   ar
    42     3     5    1
@<TRIPOS>MOLECULE
*****
 39 42 0 0 0
SMALL
GASTEIGER

@<TRIPOS>ATOM
      1 O         138.8926  139.4121  157.9201 O.2     1  UNL1       -0.2506
      2 C         138.8283  140.4461  159.0048 C.2     1  UNL1        0.3267
      3 N         138.8116  141.9037  158.6515 N.am    1  UNL1       -0.2669
      4 N         138.7808  140.0223  160.4430 N.am    1  UNL1       -0.1395
      5 H         138.7694  142.5824  159.3635 H       1  UNL1        0.1565
      6 C         138.8591  142.3275  157.2133 C.ar    1  UNL1        0.0518
      7 C         140.0713  142.0270  156.3826 C.ar    1  UNL1        0.0178
      8 C         140.1188  142.4507  154.9445 C.ar    1  UNL1        0.0382
      9 C         138.9541  143.1749  154.3372 C.ar    1  UNL1        0.1386
     10 C         137.7419  143.4754  155.1679 C.ar    1  UNL1        0.0382
     11 C         137.6944  143.0517  156.6060 C.ar    1  UNL1        0.0178
     12 O         139.0017  143.5987  152.8990 O.3     1  UNL1       -0.4755
     13 C         140.3216  143.8706  152.2405 C.3     1  UNL1        0.2054
     14 C         140.9209  145.2444  152.3005 C.3     1  UNL1        0.0477
     15 C         141.6195  145.7042  153.5456 C.3     1  UNL1        0.0085
     16 C         140.8269  146.2820  154.6804 C.3     1  UNL1        0.0265
     17 C         141.0339  145.7723  156.0759 C.ar    1  UNL1       -0.0222
     18 C         139.9921  146.0187  157.1266 C.ar    1  UNL1       -0.0043
     19 C         140.1990  145.5090  158.5221 C.ar    1  UNL1       -0.0003
     20 C         141.4477  144.7529  158.8669 C.ar    1  UNL1       -0.0000
     21 C         142.4895  144.5065  157.8162 C.ar    1  UNL1       -0.0003
     22 C         142.2826  145.0161  156.4207 C.ar    1  UNL1       -0.0043
     23 S         138.7165  141.0563  161.5278 S.O2    1  UNL1        0.0801
     24 O         140.1811  141.3296  161.3541 O.2     1  UNL1       -0.1496
     25 O         137.2518  140.7831  161.7014 O.2     1  UNL1       -0.1496
     26 C         138.6522  142.0903  162.6126 C.ar    1  UNL1        0.1256
     27 C         139.3628  141.8583  163.9130 C.ar    1  UNL1        0.0211
     28 C         139.2985  142.8923  164.9977 C.ar    1  UNL1        0.0128
     29 C         138.5236  144.1583  164.7821 C.ar    1  UNL1        0.0578
     30 CL        138.4593  145.1923  165.8669 Cl      1  UNL1       -0.0822
     31 C         137.8129  144.3904  163.4816 C.ar    1  UNL1        0.0128
     32 C         137.8772  143.3564  162.3969 C.ar    1  UNL1        0.0211
     33 C         138.7975  138.5647  160.7964 C.3     1  UNL1        0.1467
     34 C         139.5057  138.1013  162.0348 C.ar    1  UNL1       -0.0005
     35 C         138.7240  137.8116  163.2818 C.ar    1  UNL1       -0.0026
     36 C         139.4321  137.3482  164.5202 C.ar    1  UNL1       -0.0003
     37 C         140.9220  137.1745  164.5117 C.ar    1  UNL1       -0.0000
     38 C         141.7037  137.4641  163.2647 C.ar    1  UNL1       -0.0003
     39 C         140.9956  137.9275  162.0262 C.ar    1  UNL1       -0.0026
@<TRIPOS>BOND
     1     1     2    2
     2     2     3   am
     3     3     6    1
     4     6     7   ar
     5     7     8   ar
     6     8     9   ar
     7     9    12    1
     8    12    13    1
     9    13    14    1
    10    14    15    1
    11    15    16    1
    12    16    17    1
    13    17    18   ar
    14    18    19   ar
    15    19    20   ar
    16    20    21   ar
    17    21    22   ar
    18     9    10   ar
    19    10    11   ar
    20     2     4   am
    21     4    33    1
    22    33    34    1
    23    34    35   ar
    24    35    36   ar
    25    36    37   ar
    26    37    38   ar
    27    38    39   ar
    28     4    23    1
    29    23    24    2
    30    23    25    2
    31    23    26    1
    32    26    27   ar
    33    27    28   ar
    34    28    29   ar
    35    29    30    1
    36    29    31   ar
    37    31    32   ar
    38    11     6   ar
    39    39    34   ar
    40    32    26   ar
    41    22    17   ar
    42     3     5    1
@<TRIPOS>MOLECULE
*****
 39 42 0 0 0
SMALL
GASTEIGER

@<TRIPOS>ATOM
      1 O         138.9311  143.6930  159.8523 O.2     1  UNL1       -0.2506
      2 C         140.3559  143.4274  159.4656 C.2     1  UNL1        0.3267
      3 N         141.3815  143.1516  160.5249 N.am    1  UNL1       -0.2669
      4 N         140.7550  143.4377  158.0197 N.am    1  UNL1       -0.1395
      5 H         142.3166  142.9773  160.2711 H       1  UNL1        0.1565
      6 C         140.9824  143.1413  161.9708 C.ar    1  UNL1        0.0518
      7 C         140.5006  144.4023  162.6248 C.ar    1  UNL1        0.0178
      8 C         140.1015  144.3920  164.0707 C.ar    1  UNL1        0.0382
      9 C         140.1841  143.1207  164.8625 C.ar    1  UNL1        0.1386
     10 C         140.6659  141.8597  164.2085 C.ar    1  UNL1        0.0382
     11 C         141.0650  141.8701  162.7626 C.ar    1  UNL1        0.0178
     12 O         139.7850  143.1105  166.3085 O.3     1  UNL1       -0.4755
     13 C         140.3497  142.0749  167.2351 C.3     1  UNL1        0.2054
     14 C         141.7213  142.2554  167.8150 C.3     1  UNL1        0.0477
     15 C         142.9291  141.8427  167.0270 C.3     1  UNL1        0.0085
     16 C         143.8840  142.8818  166.5188 C.3     1  UNL1        0.0265
     17 C         144.1429  143.0066  165.0465 C.ar    1  UNL1       -0.0222
     18 C         144.7022  141.8434  164.2822 C.ar    1  UNL1       -0.0043
     19 C         144.9612  141.9681  162.8100 C.ar    1  UNL1       -0.0003
     20 C         144.6607  143.2560  162.1022 C.ar    1  UNL1       -0.0000
     21 C         144.1014  144.4191  162.8665 C.ar    1  UNL1       -0.0003
     22 C         143.8425  144.2944  164.3387 C.ar    1  UNL1       -0.0043
     23 S         142.1798  143.1721  157.6331 S.O2    1  UNL1        0.0801
     24 O         142.5996  144.4456  158.3053 O.2     1  UNL1       -0.1496
     25 O         141.7600  141.8986  156.9609 O.2     1  UNL1       -0.1496
     26 C         143.6046  142.9065  157.2464 C.ar    1  UNL1        0.1256
     27 C         143.9769  142.7743  155.7994 C.ar    1  UNL1        0.0211
     28 C         145.4016  142.5087  155.4128 C.ar    1  UNL1        0.0128
     29 C         146.4541  142.3753  156.4732 C.ar    1  UNL1        0.0578
     30 CL        147.8789  142.1097  156.0866 Cl      1  UNL1       -0.0822
     31 C         146.0819  142.5075  157.9203 C.ar    1  UNL1        0.0128
     32 C         144.6571  142.7731  158.3069 C.ar    1  UNL1        0.0211
     33 C         139.7294  143.7136  156.9605 C.3     1  UNL1        0.1467
     34 C         139.8945  144.8903  156.0452 C.ar    1  UNL1       -0.0005
     35 C         140.5605  144.7163  154.7124 C.ar    1  UNL1       -0.0026
     36 C         140.7255  145.8931  153.7971 C.ar    1  UNL1       -0.0003
     37 C         140.2245  147.2440  154.2144 C.ar    1  UNL1       -0.0000
     38 C         139.5585  147.4180  155.5471 C.ar    1  UNL1       -0.0003
     39 C         139.3934  146.2412  156.4625 C.ar    1  UNL1       -0.0026
@<TRIPOS>BOND
     1     1     2    2
     2     2     3   am
     3     3     6    1
     4     6     7   ar
     5     7     8   ar
     6     8     9   ar
     7     9    12    1
     8    12    13    1
     9    13    14    1
    10    14    15    1
    11    15    16    1
    12    16    17    1
    13    17    18   ar
    14    18    19   ar
    15    19    20   ar
    16    20    21   ar
    17    21    22   ar
    18     9    10   ar
    19    10    11   ar
    20     2     4   am
    21     4    33    1
    22    33    34    1
    23    34    35   ar
    24    35    36   ar
    25    36    37   ar
    26    37    38   ar
    27    38    39   ar
    28     4    23    1
    29    23    24    2
    30    23    25    2
    31    23    26    1
    32    26    27   ar
    33    27    28   ar
    34    28    29   ar
    35    29    30    1
    36    29    31   ar
    37    31    32   ar
    38    11     6   ar
    39    39    34   ar
    40    32    26   ar
    41    22    17   ar
    42     3     5    1
@<TRIPOS>MOLECULE
*****
 39 42 0 0 0
SMALL
GASTEIGER

@<TRIPOS>ATOM
      1 O         143.1392  137.7395  158.7970 O.2     1  UNL1       -0.2506
      2 C         141.8252  138.1897  158.2307 C.2     1  UNL1        0.3267
      3 N         140.8372  138.9042  159.1044 N.am    1  UNL1       -0.2669
      4 N         141.4992  137.9255  156.7905 N.am    1  UNL1       -0.1395
      5 H         139.9748  139.1997  158.7326 H       1  UNL1        0.1565
      6 C         141.1632  139.1684  160.5445 C.ar    1  UNL1        0.0518
      7 C         141.1241  138.0473  161.5403 C.ar    1  UNL1        0.0178
      8 C         141.4501  138.3116  162.9803 C.ar    1  UNL1        0.0382
      9 C         141.8151  139.6970  163.4247 C.ar    1  UNL1        0.1386
     10 C         141.8542  140.8181  162.4290 C.ar    1  UNL1        0.0382
     11 C         141.5282  140.5538  160.9889 C.ar    1  UNL1        0.0178
     12 O         142.1411  139.9612  164.8649 O.3     1  UNL1       -0.4755
     13 C         141.3934  139.2408  165.9474 C.3     1  UNL1        0.2054
     14 C         140.3610  139.9677  166.7573 C.3     1  UNL1        0.0477
     15 C         138.9197  139.5605  166.6746 C.3     1  UNL1        0.0085
     16 C         138.3076  139.2350  165.3445 C.3     1  UNL1        0.0265
     17 C         138.1655  140.3045  164.3023 C.ar    1  UNL1       -0.0222
     18 C         138.1059  141.7466  164.7109 C.ar    1  UNL1       -0.0043
     19 C         137.9637  142.8161  163.6689 C.ar    1  UNL1       -0.0003
     20 C         137.8813  142.4435  162.2182 C.ar    1  UNL1       -0.0000
     21 C         137.9409  141.0015  161.8096 C.ar    1  UNL1       -0.0003
     22 C         138.0830  139.9320  162.8517 C.ar    1  UNL1       -0.0043
     23 S         140.1853  138.3757  156.2241 S.O2    1  UNL1        0.0801
     24 O         139.4711  137.3803  157.0897 O.2     1  UNL1       -0.1496
     25 O         140.8994  139.3711  155.3586 O.2     1  UNL1       -0.1496
     26 C         138.8713  138.8259  155.6578 C.ar    1  UNL1        0.1256
     27 C         138.3188  140.1717  156.0231 C.ar    1  UNL1        0.0211
     28 C         137.0048  140.6220  155.4567 C.ar    1  UNL1        0.0128
     29 C         136.2433  139.7264  154.5251 C.ar    1  UNL1        0.0578
     30 CL        134.9294  140.1766  153.9587 Cl      1  UNL1       -0.0822
     31 C         136.7958  138.3805  154.1597 C.ar    1  UNL1        0.0128
     32 C         138.1098  137.9303  154.7260 C.ar    1  UNL1        0.0211
     33 C         142.4872  137.2110  155.9168 C.3     1  UNL1        0.1467
     34 C         142.5384  135.7119  155.9129 C.ar    1  UNL1       -0.0005
     35 C         141.3885  134.9237  155.3591 C.ar    1  UNL1       -0.0026
     36 C         141.4397  133.4246  155.3552 C.ar    1  UNL1       -0.0003
     37 C         142.6406  132.7137  155.9052 C.ar    1  UNL1       -0.0000
     38 C         143.7904  133.5019  156.4590 C.ar    1  UNL1       -0.0003
     39 C         143.7393  135.0010  156.4629 C.ar    1  UNL1       -0.0026
@<TRIPOS>BOND
     1     1     2    2
     2     2     3   am
     3     3     6    1
     4     6     7   ar
     5     7     8   ar
     6     8     9   ar
     7     9    12    1
     8    12    13    1
     9    13    14    1
    10    14    15    1
    11    15    16    1
    12    16    17    1
    13    17    18   ar
    14    18    19   ar
    15    19    20   ar
    16    20    21   ar
    17    21    22   ar
    18     9    10   ar
    19    10    11   ar
    20     2     4   am
    21     4    33    1
    22    33    34    1
    23    34    35   ar
    24    35    36   ar
    25    36    37   ar
    26    37    38   ar
    27    38    39   ar
    28     4    23    1
    29    23    24    2
    30    23    25    2
    31    23    26    1
    32    26    27   ar
    33    27    28   ar
    34    28    29   ar
    35    29    30    1
    36    29    31   ar
    37    31    32   ar
    38    11     6   ar
    39    39    34   ar
    40    32    26   ar
    41    22    17   ar
    42     3     5    1
@<TRIPOS>MOLECULE
*****
 39 42 0 0 0
SMALL
GASTEIGER

@<TRIPOS>ATOM
      1 O         141.5974  141.4190  158.3403 O.2     1  UNL1       -0.2506
      2 C         141.0168  140.7791  159.5664 C.2     1  UNL1        0.3267
      3 N         140.7897  139.2968  159.6028 N.am    1  UNL1       -0.2669
      4 N         140.6633  141.6214  160.7562 N.am    1  UNL1       -0.1395
      5 H         140.4086  138.8768  160.4075 H       1  UNL1        0.1565
      6 C         141.1432  138.4545  158.4130 C.ar    1  UNL1        0.0518
      7 C         142.4971  137.8153  158.3223 C.ar    1  UNL1        0.0178
      8 C         142.8506  136.9730  157.1325 C.ar    1  UNL1        0.0382
      9 C         141.8501  136.7699  156.0335 C.ar    1  UNL1        0.1386
     10 C         140.4962  137.4091  156.1242 C.ar    1  UNL1        0.0382
     11 C         140.1428  138.2514  157.3140 C.ar    1  UNL1        0.0178
     12 O         142.2036  135.9275  154.8437 O.3     1  UNL1       -0.4755
     13 C         141.1640  135.0522  154.2090 C.3     1  UNL1        0.2054
     14 C         141.5790  133.9321  153.3016 C.3     1  UNL1        0.0477
     15 C         141.3996  132.5081  153.7375 C.3     1  UNL1        0.0085
     16 C         141.4166  132.1628  155.1970 C.3     1  UNL1        0.0265
     17 C         142.7132  132.1572  155.9513 C.ar    1  UNL1       -0.0222
     18 C         143.7189  131.0716  155.7062 C.ar    1  UNL1       -0.0043
     19 C         145.0154  131.0660  156.4605 C.ar    1  UNL1       -0.0003
     20 C         145.3063  132.1461  157.4598 C.ar    1  UNL1       -0.0000
     21 C         144.3006  133.2317  157.7050 C.ar    1  UNL1       -0.0003
     22 C         143.0041  133.2373  156.9507 C.ar    1  UNL1       -0.0043
     23 S         140.0827  140.9815  161.9823 S.O2    1  UNL1        0.0801
     24 O         138.7613  141.6310  161.6957 O.2     1  UNL1       -0.1496
     25 O         141.4040  140.3319  162.2690 O.2     1  UNL1       -0.1496
     26 C         139.5021  140.3415  163.2085 C.ar    1  UNL1        0.1256
     27 C         139.4235  138.8469  163.3087 C.ar    1  UNL1        0.0211
     28 C         138.8429  138.2070  164.5348 C.ar    1  UNL1        0.0128
     29 C         138.3409  139.0616  165.6607 C.ar    1  UNL1        0.0578
     30 CL        137.7603  138.4216  166.8868 Cl      1  UNL1       -0.0822
     31 C         138.4195  140.5562  165.5605 C.ar    1  UNL1        0.0128
     32 C         139.0001  141.1962  164.3344 C.ar    1  UNL1        0.0211
     33 C         140.8903  143.1037  160.7199 C.3     1  UNL1        0.1467
     34 C         141.7885  143.7498  161.7327 C.ar    1  UNL1       -0.0005
     35 C         143.2691  143.5150  161.6804 C.ar    1  UNL1       -0.0026
     36 C         144.1672  144.1612  162.6932 C.ar    1  UNL1       -0.0003
     37 C         143.5847  145.0422  163.7583 C.ar    1  UNL1       -0.0000
     38 C         142.1042  145.2771  163.8107 C.ar    1  UNL1       -0.0003
     39 C         141.2060  144.6309  162.7978 C.ar    1  UNL1       -0.0026
@<TRIPOS>BOND
     1     1     2    2
     2     2     3   am
     3     3     6    1
     4     6     7   ar
     5     7     8   ar
     6     8     9   ar
     7     9    12    1
     8    12    13    1
     9    13    14    1
    10    14    15    1
    11    15    16    1
    12    16    17    1
    13    17    18   ar
    14    18    19   ar
    15    19    20   ar
    16    20    21   ar
    17    21    22   ar
    18     9    10   ar
    19    10    11   ar
    20     2     4   am
    21     4    33    1
    22    33    34    1
    23    34    35   ar
    24    35    36   ar
    25    36    37   ar
    26    37    38   ar
    27    38    39   ar
    28     4    23    1
    29    23    24    2
    30    23    25    2
    31    23    26    1
    32    26    27   ar
    33    27    28   ar
    34    28    29   ar
    35    29    30    1
    36    29    31   ar
    37    31    32   ar
    38    11     6   ar
    39    39    34   ar
    40    32    26   ar
    41    22    17   ar
    42     3     5    1
