@<TRIPOS>MOLECULE
*****
 33 36 0 0 0
SMALL
GASTEIGER

@<TRIPOS>ATOM
      1 C         141.3049  141.3141  166.4100 C.3     1  UNL1        0.1753
      2 C         141.8030  141.2084  167.8209 C.ar    1  UNL1        0.0091
      3 C         143.0682  141.6768  168.4764 C.ar    1  UNL1        0.0011
      4 C         143.2947  141.4225  169.9372 C.ar    1  UNL1        0.0364
      5 C         142.2559  140.6997  170.7425 C.ar    1  UNL1        0.1338
      6 O         142.4824  140.4454  172.2034 O.3     1  UNL1       -0.5055
      7 C         140.9907  140.2313  170.0871 C.ar    1  UNL1        0.0409
      8 C         140.7642  140.4856  168.6263 C.ar    1  UNL1        0.0547
      9 C         139.6241  140.1448  167.7130 C.2     1  UNL1        0.2497
     10 O         138.3700  139.4192  168.1014 O.2     1  UNL1       -0.2699
     11 N         139.9582  140.6568  166.3433 N.am    1  UNL1       -0.2619
     12 H         143.2728  140.7380  172.6128 H       1  UNL1        0.2922
     13 N         142.1772  143.4552  165.2246 N.am    1  UNL1       -0.3059
     14 C         142.0267  141.9633  165.2665 C.2     1  UNL1        0.2448
     15 O         142.5980  141.1207  164.1649 O.2     1  UNL1       -0.2729
     16 H         141.8022  144.0083  165.9476 H       1  UNL1        0.1494
     17 C         141.5992  144.2589  163.3485 C.3     1  UNL1        0.0196
     18 C         142.8990  144.1044  164.0811 C.3     1  UNL1        0.0569
     19 C         144.1988  143.9498  164.8138 C.3     1  UNL1        0.0196
     20 C         143.6208  144.7535  162.9377 C.3     1  UNL1        0.0196
     21 C         139.0970  140.5332  165.1214 C.3     1  UNL1        0.1212
     22 C         138.6464  141.7649  164.3937 C.ar    1  UNL1       -0.0023
     23 C         138.3146  143.0104  165.1612 C.ar    1  UNL1       -0.0026
     24 C         137.8640  144.2421  164.4334 C.ar    1  UNL1       -0.0003
     25 C         137.7452  144.2286  162.9382 C.ar    1  UNL1       -0.0000
     26 C         138.0769  142.9833  162.1707 C.ar    1  UNL1       -0.0003
     27 C         138.5275  141.7514  162.8985 C.ar    1  UNL1       -0.0024
     28 C         138.8593  140.5061  162.1310 C.ar    1  UNL1       -0.0003
     29 C         137.8923  139.3596  162.1075 C.ar    1  UNL1       -0.0000
     30 C         138.2240  138.1143  161.3400 C.ar    1  UNL1       -0.0000
     31 C         139.5228  138.0154  160.5960 C.ar    1  UNL1       -0.0000
     32 C         140.4898  139.1618  160.6195 C.ar    1  UNL1       -0.0000
     33 C         140.1580  140.4072  161.3870 C.ar    1  UNL1       -0.0000
@<TRIPOS>BOND
     1    17    18    1
     2    18    19    1
     3    18    20    1
     4    18    13    1
     5    13    14   am
     6    14    15    2
     7    14     1    1
     8     1     2    1
     9     2     3   ar
    10     3     4   ar
    11     4     5   ar
    12     5     6    1
    13     5     7   ar
    14     7     8   ar
    15     8     9    1
    16     9    10    2
    17     9    11   am
    18    11    21    1
    19    21    22    1
    20    22    23   ar
    21    23    24   ar
    22    24    25   ar
    23    25    26   ar
    24    26    27   ar
    25    27    28    1
    26    28    29   ar
    27    29    30   ar
    28    30    31   ar
    29    31    32   ar
    30    32    33   ar
    31    11     1    1
    32    27    22   ar
    33    33    28   ar
    34     8     2   ar
    35    13    16    1
    36     6    12    1
@<TRIPOS>MOLECULE
*****
 33 36 0 0 0
SMALL
GASTEIGER

@<TRIPOS>ATOM
      1 C         141.2881  141.6771  166.3464 C.3     1  UNL1        0.1753
      2 C         141.3817  142.0205  167.8035 C.ar    1  UNL1        0.0091
      3 C         140.8523  143.1773  168.5981 C.ar    1  UNL1        0.0011
      4 C         141.1095  143.2538  170.0739 C.ar    1  UNL1        0.0364
      5 C         141.8961  142.1734  170.7551 C.ar    1  UNL1        0.1338
      6 O         142.1533  142.2500  172.2309 O.3     1  UNL1       -0.5055
      7 C         142.4255  141.0166  169.9605 C.ar    1  UNL1        0.0409
      8 C         142.1683  140.9401  168.4848 C.ar    1  UNL1        0.0547
      9 C         142.5608  139.9290  167.4486 C.2     1  UNL1        0.2497
     10 O         143.3575  138.6815  167.6914 O.2     1  UNL1       -0.2699
     11 N         142.0168  140.3845  166.1270 N.am    1  UNL1       -0.2619
     12 H         141.8226  142.9726  172.7273 H       1  UNL1        0.2922
     13 N         139.0900  142.4903  165.2250 N.am    1  UNL1       -0.3059
     14 C         140.5885  142.4845  165.2935 C.2     1  UNL1        0.2448
     15 O         141.3873  143.2861  164.3090 O.2     1  UNL1       -0.2729
     16 H         138.5657  141.9642  165.8712 H       1  UNL1        0.1494
     17 C         138.4083  144.4937  165.0775 C.3     1  UNL1        0.0196
     18 C         138.3905  143.2978  164.1721 C.3     1  UNL1        0.0569
     19 C         138.3726  142.1019  163.2668 C.3     1  UNL1        0.0196
     20 C         137.6909  144.1052  163.1193 C.3     1  UNL1        0.0196
     21 C         142.1740  139.6724  164.8162 C.3     1  UNL1        0.1212
     22 C         140.9970  138.9845  164.1905 C.ar    1  UNL1       -0.0023
     23 C         139.9955  138.2769  165.0544 C.ar    1  UNL1       -0.0026
     24 C         138.8185  137.5890  164.4288 C.ar    1  UNL1       -0.0003
     25 C         138.6430  137.6086  162.9392 C.ar    1  UNL1       -0.0000
     26 C         139.6445  138.3161  162.0753 C.ar    1  UNL1       -0.0003
     27 C         140.8216  139.0041  162.7009 C.ar    1  UNL1       -0.0024
     28 C         141.8231  139.7116  161.8370 C.ar    1  UNL1       -0.0003
     29 C         141.6607  141.1737  161.5439 C.ar    1  UNL1       -0.0000
     30 C         142.6622  141.8811  160.6800 C.ar    1  UNL1       -0.0000
     31 C         143.8262  141.1265  160.1091 C.ar    1  UNL1       -0.0000
     32 C         143.9886  139.6644  160.4022 C.ar    1  UNL1       -0.0000
     33 C         142.9870  138.9570  161.2662 C.ar    1  UNL1       -0.0000
@<TRIPOS>BOND
     1    17    18    1
     2    18    19    1
     3    18    20    1
     4    18    13    1
     5    13    14   am
     6    14    15    2
     7    14     1    1
     8     1     2    1
     9     2     3   ar
    10     3     4   ar
    11     4     5   ar
    12     5     6    1
    13     5     7   ar
    14     7     8   ar
    15     8     9    1
    16     9    10    2
    17     9    11   am
    18    11    21    1
    19    21    22    1
    20    22    23   ar
    21    23    24   ar
    22    24    25   ar
    23    25    26   ar
    24    26    27   ar
    25    27    28    1
    26    28    29   ar
    27    29    30   ar
    28    30    31   ar
    29    31    32   ar
    30    32    33   ar
    31    11     1    1
    32    27    22   ar
    33    33    28   ar
    34     8     2   ar
    35    13    16    1
    36     6    12    1
@<TRIPOS>MOLECULE
*****
 33 36 0 0 0
SMALL
GASTEIGER

@<TRIPOS>ATOM
      1 C         141.7625  143.0838  163.4470 C.3     1  UNL1        0.1753
      2 C         141.6177  143.6774  162.0770 C.ar    1  UNL1        0.0091
      3 C         142.4815  143.6001  160.8532 C.ar    1  UNL1        0.0011
      4 C         142.0710  144.3134  159.5992 C.ar    1  UNL1        0.0364
      5 C         140.7966  145.1040  159.5690 C.ar    1  UNL1        0.1338
      6 O         140.3861  145.8174  158.3150 O.3     1  UNL1       -0.5055
      7 C         139.9328  145.1813  160.7928 C.ar    1  UNL1        0.0409
      8 C         140.3433  144.4679  162.0468 C.ar    1  UNL1        0.0547
      9 C         139.7006  144.3630  163.3981 C.2     1  UNL1        0.2497
     10 O         138.4077  145.0014  163.8114 O.2     1  UNL1       -0.2699
     11 N         140.5777  143.5075  164.2634 N.am    1  UNL1       -0.2619
     12 H         140.9258  145.7692  157.5505 H       1  UNL1        0.2922
     13 N         142.8529  140.7373  163.6830 N.am    1  UNL1       -0.3059
     14 C         142.8937  142.2184  163.9177 C.2     1  UNL1        0.2448
     15 O         144.0655  142.8338  164.6232 O.2     1  UNL1       -0.2729
     16 H         142.0838  140.3333  163.2199 H       1  UNL1        0.1494
     17 C         143.2180  139.5502  165.4026 C.3     1  UNL1        0.0196
     18 C         143.9841  139.8719  164.1537 C.3     1  UNL1        0.0569
     19 C         144.7500  140.1937  162.9048 C.3     1  UNL1        0.0196
     20 C         145.1151  139.0066  164.6245 C.3     1  UNL1        0.0196
     21 C         140.3160  143.1402  165.6940 C.3     1  UNL1        0.1212
     22 C         139.7153  141.8071  166.0283 C.ar    1  UNL1       -0.0023
     23 C         138.8034  141.1286  165.0493 C.ar    1  UNL1       -0.0026
     24 C         138.2027  139.7954  165.3835 C.ar    1  UNL1       -0.0003
     25 C         138.5138  139.1406  166.6967 C.ar    1  UNL1       -0.0000
     26 C         139.4255  139.8190  167.6757 C.ar    1  UNL1       -0.0003
     27 C         140.0263  141.1523  167.3415 C.ar    1  UNL1       -0.0024
     28 C         140.9381  141.8307  168.3205 C.ar    1  UNL1       -0.0003
     29 C         140.3972  142.8793  169.2467 C.ar    1  UNL1       -0.0000
     30 C         141.3090  143.5577  170.2257 C.ar    1  UNL1       -0.0000
     31 C         142.7617  143.1874  170.2784 C.ar    1  UNL1       -0.0000
     32 C         143.3025  142.1388  169.3522 C.ar    1  UNL1       -0.0000
     33 C         142.3907  141.4604  168.3732 C.ar    1  UNL1       -0.0000
@<TRIPOS>BOND
     1    17    18    1
     2    18    19    1
     3    18    20    1
     4    18    13    1
     5    13    14   am
     6    14    15    2
     7    14     1    1
     8     1     2    1
     9     2     3   ar
    10     3     4   ar
    11     4     5   ar
    12     5     6    1
    13     5     7   ar
    14     7     8   ar
    15     8     9    1
    16     9    10    2
    17     9    11   am
    18    11    21    1
    19    21    22    1
    20    22    23   ar
    21    23    24   ar
    22    24    25   ar
    23    25    26   ar
    24    26    27   ar
    25    27    28    1
    26    28    29   ar
    27    29    30   ar
    28    30    31   ar
    29    31    32   ar
    30    32    33   ar
    31    11     1    1
    32    27    22   ar
    33    33    28   ar
    34     8     2   ar
    35    13    16    1
    36     6    12    1
@<TRIPOS>MOLECULE
*****
 33 36 0 0 0
SMALL
GASTEIGER

@<TRIPOS>ATOM
      1 C         140.8042  141.3983  166.5293 C.3     1  UNL1        0.1753
      2 C         141.0309  141.8487  167.9420 C.ar    1  UNL1        0.0091
      3 C         140.5102  143.0227  168.7170 C.ar    1  UNL1        0.0011
      4 C         140.9201  143.2191  170.1464 C.ar    1  UNL1        0.0364
      5 C         141.8507  142.2415  170.8009 C.ar    1  UNL1        0.1338
      6 O         142.2606  142.4380  172.2304 O.3     1  UNL1       -0.5055
      7 C         142.3714  141.0675  170.0259 C.ar    1  UNL1        0.0409
      8 C         141.9615  140.8711  168.5965 C.ar    1  UNL1        0.0547
      9 C         142.3098  139.8166  167.5883 C.2     1  UNL1        0.2497
     10 O         143.2146  138.6423  167.8174 O.2     1  UNL1       -0.2699
     11 N         141.5946  140.1423  166.3107 N.am    1  UNL1       -0.2619
     12 H         141.9353  143.1713  172.7145 H       1  UNL1        0.2922
     13 N         140.2719  143.4742  165.0604 N.am    1  UNL1       -0.3059
     14 C         139.9389  142.0835  165.5136 C.2     1  UNL1        0.2448
     15 O         138.7406  141.3783  164.9509 O.2     1  UNL1       -0.2729
     16 H         141.0584  143.9372  165.4297 H       1  UNL1        0.1494
     17 C         138.5272  144.6780  165.1438 C.3     1  UNL1        0.0196
     18 C         139.4066  144.1595  164.0447 C.3     1  UNL1        0.0569
     19 C         140.2861  143.6410  162.9457 C.3     1  UNL1        0.0196
     20 C         138.5414  144.8447  163.0290 C.3     1  UNL1        0.0196
     21 C         141.6585  139.3511  165.0379 C.3     1  UNL1        0.1212
     22 C         142.5569  139.7965  163.9223 C.ar    1  UNL1       -0.0023
     23 C         143.9865  140.1507  164.2065 C.ar    1  UNL1       -0.0026
     24 C         144.8849  140.5960  163.0909 C.ar    1  UNL1       -0.0003
     25 C         144.3536  140.6871  161.6910 C.ar    1  UNL1       -0.0000
     26 C         142.9240  140.3330  161.4068 C.ar    1  UNL1       -0.0003
     27 C         142.0256  139.8876  162.5225 C.ar    1  UNL1       -0.0024
     28 C         140.5960  139.5334  162.2383 C.ar    1  UNL1       -0.0003
     29 C         139.6535  140.5783  161.7188 C.ar    1  UNL1       -0.0000
     30 C         138.2239  140.2241  161.4346 C.ar    1  UNL1       -0.0000
     31 C         137.7368  138.8250  161.6699 C.ar    1  UNL1       -0.0000
     32 C         138.6793  137.7802  162.1894 C.ar    1  UNL1       -0.0000
     33 C         140.1090  138.1344  162.4736 C.ar    1  UNL1       -0.0000
@<TRIPOS>BOND
     1    17    18    1
     2    18    19    1
     3    18    20    1
     4    18    13    1
     5    13    14   am
     6    14    15    2
     7    14     1    1
     8     1     2    1
     9     2     3   ar
    10     3     4   ar
    11     4     5   ar
    12     5     6    1
    13     5     7   ar
    14     7     8   ar
    15     8     9    1
    16     9    10    2
    17     9    11   am
    18    11    21    1
    19    21    22    1
    20    22    23   ar
    21    23    24   ar
    22    24    25   ar
    23    25    26   ar
    24    26    27   ar
    25    27    28    1
    26    28    29   ar
    27    29    30   ar
    28    30    31   ar
    29    31    32   ar
    30    32    33   ar
    31    11     1    1
    32    27    22   ar
    33    33    28   ar
    34     8     2   ar
    35    13    16    1
    36     6    12    1
@<TRIPOS>MOLECULE
*****
 33 36 0 0 0
SMALL
GASTEIGER

@<TRIPOS>ATOM
      1 C         141.5560  142.1234  163.0426 C.3     1  UNL1        0.1753
      2 C         141.0460  143.3275  162.3076 C.ar    1  UNL1        0.0091
      3 C         141.2088  143.7794  160.8866 C.ar    1  UNL1        0.0011
      4 C         140.5690  145.0561  160.4277 C.ar    1  UNL1        0.0364
      5 C         139.7663  145.8808  161.3898 C.ar    1  UNL1        0.1338
      6 O         139.1264  147.1576  160.9308 O.3     1  UNL1       -0.5055
      7 C         139.6035  145.4289  162.8107 C.ar    1  UNL1        0.0409
      8 C         140.2434  144.1522  163.2696 C.ar    1  UNL1        0.0547
      9 C         140.2573  143.4578  164.5992 C.2     1  UNL1        0.2497
     10 O         139.5791  143.9338  165.8496 O.2     1  UNL1       -0.2699
     11 N         141.0686  142.2040  164.4589 N.am    1  UNL1       -0.2619
     12 H         139.2282  147.4399  160.0432 H       1  UNL1        0.2922
     13 N         141.7578  139.8495  161.8020 N.am    1  UNL1       -0.3059
     14 C         142.4045  141.0307  162.4629 C.2     1  UNL1        0.2448
     15 O         143.8996  141.1189  162.5442 O.2     1  UNL1       -0.2729
     16 H         140.7764  139.7916  161.7486 H       1  UNL1        0.1494
     17 C         142.5825  138.0397  162.5397 C.3     1  UNL1        0.0196
     18 C         142.6063  138.7568  161.2224 C.3     1  UNL1        0.0569
     19 C         142.6300  139.4739  159.9051 C.3     1  UNL1        0.0196
     20 C         143.4547  137.6640  160.6428 C.3     1  UNL1        0.0196
     21 C         141.3440  141.2059  165.5442 C.3     1  UNL1        0.1212
     22 C         140.2144  140.4296  166.1535 C.ar    1  UNL1       -0.0023
     23 C         139.3011  139.6229  165.2787 C.ar    1  UNL1       -0.0026
     24 C         138.1715  138.8465  165.8880 C.ar    1  UNL1       -0.0003
     25 C         137.9552  138.8768  167.3720 C.ar    1  UNL1       -0.0000
     26 C         138.8685  139.6834  168.2468 C.ar    1  UNL1       -0.0003
     27 C         139.9982  140.4598  167.6375 C.ar    1  UNL1       -0.0024
     28 C         140.9114  141.2664  168.5123 C.ar    1  UNL1       -0.0003
     29 C         140.4870  142.6234  168.9903 C.ar    1  UNL1       -0.0000
     30 C         141.4003  143.4300  169.8650 C.ar    1  UNL1       -0.0000
     31 C         142.7381  142.8796  170.2618 C.ar    1  UNL1       -0.0000
     32 C         143.1626  141.5227  169.7838 C.ar    1  UNL1       -0.0000
     33 C         142.2492  140.7161  168.9090 C.ar    1  UNL1       -0.0000
@<TRIPOS>BOND
     1    17    18    1
     2    18    19    1
     3    18    20    1
     4    18    13    1
     5    13    14   am
     6    14    15    2
     7    14     1    1
     8     1     2    1
     9     2     3   ar
    10     3     4   ar
    11     4     5   ar
    12     5     6    1
    13     5     7   ar
    14     7     8   ar
    15     8     9    1
    16     9    10    2
    17     9    11   am
    18    11    21    1
    19    21    22    1
    20    22    23   ar
    21    23    24   ar
    22    24    25   ar
    23    25    26   ar
    24    26    27   ar
    25    27    28    1
    26    28    29   ar
    27    29    30   ar
    28    30    31   ar
    29    31    32   ar
    30    32    33   ar
    31    11     1    1
    32    27    22   ar
    33    33    28   ar
    34     8     2   ar
    35    13    16    1
    36     6    12    1
@<TRIPOS>MOLECULE
*****
 33 36 0 0 0
SMALL
GASTEIGER

@<TRIPOS>ATOM
      1 C         141.9665  141.2127  164.3377 C.3     1  UNL1        0.1753
      2 C         142.2731  141.2004  165.8060 C.ar    1  UNL1        0.0091
      3 C         142.4842  142.3068  166.7966 C.ar    1  UNL1        0.0011
      4 C         142.7824  141.9828  168.2305 C.ar    1  UNL1        0.0364
      5 C         142.8695  140.5524  168.6738 C.ar    1  UNL1        0.1338
      6 O         143.1678  140.2285  170.1077 O.3     1  UNL1       -0.5055
      7 C         142.6584  139.4461  167.6832 C.ar    1  UNL1        0.0409
      8 C         142.3602  139.7700  166.2493 C.ar    1  UNL1        0.0547
      9 C         142.1075  138.8984  165.0550 C.2     1  UNL1        0.2497
     10 O         142.0995  137.3985  165.0440 O.2     1  UNL1       -0.2699
     11 N         141.8641  139.7900  163.8735 N.am    1  UNL1       -0.2619
     12 H         143.2996  140.9196  170.7265 H       1  UNL1        0.2922
     13 N         140.7114  143.4234  163.8012 N.am    1  UNL1       -0.3059
     14 C         141.7927  142.4335  163.4836 C.2     1  UNL1        0.2448
     15 O         142.7002  142.6644  162.3118 O.2     1  UNL1       -0.2729
     16 H         140.1157  143.2719  164.5703 H       1  UNL1        0.1494
     17 C         139.4501  143.9524  162.1797 C.3     1  UNL1        0.0196
     18 C         140.5376  144.6442  162.9471 C.3     1  UNL1        0.0569
     19 C         141.6251  145.3359  163.7145 C.3     1  UNL1        0.0196
     20 C         140.3639  145.8649  162.0930 C.3     1  UNL1        0.0196
     21 C         141.5701  139.3383  162.4737 C.3     1  UNL1        0.1212
     22 C         140.4366  139.9551  161.7091 C.ar    1  UNL1       -0.0023
     23 C         140.6841  140.5601  160.3589 C.ar    1  UNL1       -0.0026
     24 C         139.5506  141.1769  159.5943 C.ar    1  UNL1       -0.0003
     25 C         138.1696  141.1888  160.1797 C.ar    1  UNL1       -0.0000
     26 C         137.9221  140.5839  161.5298 C.ar    1  UNL1       -0.0003
     27 C         139.0556  139.9670  162.2945 C.ar    1  UNL1       -0.0024
     28 C         138.8081  139.3621  163.6446 C.ar    1  UNL1       -0.0003
     29 C         138.8445  137.8725  163.8171 C.ar    1  UNL1       -0.0000
     30 C         138.5970  137.2676  165.1672 C.ar    1  UNL1       -0.0000
     31 C         138.3131  138.1523  166.3449 C.ar    1  UNL1       -0.0000
     32 C         138.2767  139.6419  166.1723 C.ar    1  UNL1       -0.0000
     33 C         138.5243  140.2468  164.8222 C.ar    1  UNL1       -0.0000
@<TRIPOS>BOND
     1    17    18    1
     2    18    19    1
     3    18    20    1
     4    18    13    1
     5    13    14   am
     6    14    15    2
     7    14     1    1
     8     1     2    1
     9     2     3   ar
    10     3     4   ar
    11     4     5   ar
    12     5     6    1
    13     5     7   ar
    14     7     8   ar
    15     8     9    1
    16     9    10    2
    17     9    11   am
    18    11    21    1
    19    21    22    1
    20    22    23   ar
    21    23    24   ar
    22    24    25   ar
    23    25    26   ar
    24    26    27   ar
    25    27    28    1
    26    28    29   ar
    27    29    30   ar
    28    30    31   ar
    29    31    32   ar
    30    32    33   ar
    31    11     1    1
    32    27    22   ar
    33    33    28   ar
    34     8     2   ar
    35    13    16    1
    36     6    12    1
@<TRIPOS>MOLECULE
*****
 33 36 0 0 0
SMALL
GASTEIGER

@<TRIPOS>ATOM
      1 C         142.2362  140.4294  165.9873 C.3     1  UNL1        0.1753
      2 C         142.1368  140.2259  167.4701 C.ar    1  UNL1        0.0091
      3 C         142.6767  139.1585  168.3752 C.ar    1  UNL1        0.0011
      4 C         142.4098  139.2201  169.8499 C.ar    1  UNL1        0.0364
      5 C         141.6030  140.3490  170.4196 C.ar    1  UNL1        0.1338
      6 O         141.3360  140.4106  171.8944 O.3     1  UNL1       -0.5055
      7 C         141.0631  141.4164  169.5145 C.ar    1  UNL1        0.0409
      8 C         141.3300  141.3549  168.0398 C.ar    1  UNL1        0.0547
      9 C         140.9308  142.2560  166.9090 C.2     1  UNL1        0.2497
     10 O         140.1147  143.5091  167.0263 O.2     1  UNL1       -0.2699
     11 N         141.4908  141.6840  165.6405 N.am    1  UNL1       -0.2619
     12 H         141.6733  139.7438  172.4598 H       1  UNL1        0.2922
     13 N         142.6772  139.6427  163.5507 N.am    1  UNL1       -0.3059
     14 C         142.9548  139.5351  165.0209 C.2     1  UNL1        0.2448
     15 O         143.9511  138.5333  165.5246 O.2     1  UNL1       -0.2729
     16 H         142.0233  140.3002  163.2200 H       1  UNL1        0.1494
     17 C         144.4983  139.7591  162.4691 C.3     1  UNL1        0.0196
     18 C         143.3958  138.7485  162.5843 C.3     1  UNL1        0.0569
     19 C         142.2933  137.7379  162.6995 C.3     1  UNL1        0.0196
     20 C         144.1144  137.8543  161.6180 C.3     1  UNL1        0.0196
     21 C         141.3332  142.2648  164.2665 C.3     1  UNL1        0.1212
     22 C         140.0509  142.9403  163.8804 C.ar    1  UNL1       -0.0023
     23 C         140.0550  144.3872  163.4845 C.ar    1  UNL1       -0.0026
     24 C         138.7727  145.0627  163.0983 C.ar    1  UNL1       -0.0003
     25 C         137.4862  144.2915  163.1080 C.ar    1  UNL1       -0.0000
     26 C         137.4820  142.8447  163.5038 C.ar    1  UNL1       -0.0003
     27 C         138.7644  142.1691  163.8900 C.ar    1  UNL1       -0.0024
     28 C         138.7602  140.7223  164.2859 C.ar    1  UNL1       -0.0003
     29 C         138.4201  140.3308  165.6933 C.ar    1  UNL1       -0.0000
     30 C         138.4159  138.8840  166.0892 C.ar    1  UNL1       -0.0000
     31 C         138.7519  137.8286  165.0775 C.ar    1  UNL1       -0.0000
     32 C         139.0921  138.2201  163.6700 C.ar    1  UNL1       -0.0000
     33 C         139.0962  139.6670  163.2742 C.ar    1  UNL1       -0.0000
@<TRIPOS>BOND
     1    17    18    1
     2    18    19    1
     3    18    20    1
     4    18    13    1
     5    13    14   am
     6    14    15    2
     7    14     1    1
     8     1     2    1
     9     2     3   ar
    10     3     4   ar
    11     4     5   ar
    12     5     6    1
    13     5     7   ar
    14     7     8   ar
    15     8     9    1
    16     9    10    2
    17     9    11   am
    18    11    21    1
    19    21    22    1
    20    22    23   ar
    21    23    24   ar
    22    24    25   ar
    23    25    26   ar
    24    26    27   ar
    25    27    28    1
    26    28    29   ar
    27    29    30   ar
    28    30    31   ar
    29    31    32   ar
    30    32    33   ar
    31    11     1    1
    32    27    22   ar
    33    33    28   ar
    34     8     2   ar
    35    13    16    1
    36     6    12    1
@<TRIPOS>MOLECULE
*****
 33 36 0 0 0
SMALL
GASTEIGER

@<TRIPOS>ATOM
      1 C         141.0663  141.6746  166.5955 C.3     1  UNL1        0.1753
      2 C         141.6762  141.4671  167.9501 C.ar    1  UNL1        0.0091
      3 C         142.9436  141.9776  168.5691 C.ar    1  UNL1        0.0011
      4 C         143.2997  141.5930  169.9744 C.ar    1  UNL1        0.0364
      5 C         142.3886  140.6978  170.7609 C.ar    1  UNL1        0.1338
      6 O         142.7448  140.3132  172.1663 O.3     1  UNL1       -0.5055
      7 C         141.1212  140.1874  170.1419 C.ar    1  UNL1        0.0409
      8 C         140.7650  140.5720  168.7365 C.ar    1  UNL1        0.0547
      9 C         139.5920  140.2263  167.8679 C.2     1  UNL1        0.2497
     10 O         138.4357  139.3525  168.2547 O.2     1  UNL1       -0.2699
     11 N         139.7781  140.9078  166.5447 N.am    1  UNL1       -0.2619
     12 H         143.5365  140.6321  172.5530 H       1  UNL1        0.2922
     13 N         142.9727  142.1418  164.8933 N.am    1  UNL1       -0.3059
     14 C         141.6432  142.5035  165.4864 C.2     1  UNL1        0.2448
     15 O         140.8908  143.6941  164.9704 O.2     1  UNL1       -0.2729
     16 H         143.4666  141.3603  165.2319 H       1  UNL1        0.1494
     17 C         143.0513  141.9739  162.7801 C.3     1  UNL1        0.0196
     18 C         143.5497  142.9707  163.7842 C.3     1  UNL1        0.0569
     19 C         144.0480  143.9674  164.7883 C.3     1  UNL1        0.0196
     20 C         144.1266  143.7995  162.6751 C.3     1  UNL1        0.0196
     21 C         138.8408  140.8351  165.3759 C.3     1  UNL1        0.1212
     22 C         139.1660  139.9527  164.2074 C.ar    1  UNL1       -0.0023
     23 C         139.3689  138.4807  164.4126 C.ar    1  UNL1       -0.0026
     24 C         139.6941  137.5983  163.2440 C.ar    1  UNL1       -0.0003
     25 C         139.8166  138.1879  161.8702 C.ar    1  UNL1       -0.0000
     26 C         139.6138  139.6599  161.6649 C.ar    1  UNL1       -0.0003
     27 C         139.2885  140.5423  162.8335 C.ar    1  UNL1       -0.0024
     28 C         139.0857  142.0143  162.6283 C.ar    1  UNL1       -0.0003
     29 C         137.9147  142.7055  163.2614 C.ar    1  UNL1       -0.0000
     30 C         137.7118  144.1775  163.0562 C.ar    1  UNL1       -0.0000
     31 C         138.6801  144.9583  162.2177 C.ar    1  UNL1       -0.0000
     32 C         139.8511  144.2670  161.5845 C.ar    1  UNL1       -0.0000
     33 C         140.0539  142.7950  161.7898 C.ar    1  UNL1       -0.0000
@<TRIPOS>BOND
     1    17    18    1
     2    18    19    1
     3    18    20    1
     4    18    13    1
     5    13    14   am
     6    14    15    2
     7    14     1    1
     8     1     2    1
     9     2     3   ar
    10     3     4   ar
    11     4     5   ar
    12     5     6    1
    13     5     7   ar
    14     7     8   ar
    15     8     9    1
    16     9    10    2
    17     9    11   am
    18    11    21    1
    19    21    22    1
    20    22    23   ar
    21    23    24   ar
    22    24    25   ar
    23    25    26   ar
    24    26    27   ar
    25    27    28    1
    26    28    29   ar
    27    29    30   ar
    28    30    31   ar
    29    31    32   ar
    30    32    33   ar
    31    11     1    1
    32    27    22   ar
    33    33    28   ar
    34     8     2   ar
    35    13    16    1
    36     6    12    1
@<TRIPOS>MOLECULE
*****
 33 36 0 0 0
SMALL
GASTEIGER

@<TRIPOS>ATOM
      1 C         140.5934  141.2346  162.9365 C.3     1  UNL1        0.1753
      2 C         140.5006  142.6636  162.4899 C.ar    1  UNL1        0.0091
      3 C         140.6644  143.3075  161.1452 C.ar    1  UNL1        0.0011
      4 C         140.5103  144.7926  161.0010 C.ar    1  UNL1        0.0364
      5 C         140.1925  145.6337  162.2017 C.ar    1  UNL1        0.1338
      6 O         140.0385  147.1188  162.0575 O.3     1  UNL1       -0.5055
      7 C         140.0287  144.9897  163.5464 C.ar    1  UNL1        0.0409
      8 C         140.1827  143.5047  163.6906 C.ar    1  UNL1        0.0547
      9 C         140.0791  142.5955  164.8791 C.2     1  UNL1        0.2497
     10 O         139.7751  143.0156  166.2866 O.2     1  UNL1       -0.2699
     11 N         140.3330  141.1925  164.4131 N.am    1  UNL1       -0.2619
     12 H         140.1408  147.5211  161.2175 H       1  UNL1        0.2922
     13 N         142.2313  139.9393  161.3906 N.am    1  UNL1       -0.3059
     14 C         140.8940  140.0548  162.0602 C.2     1  UNL1        0.2448
     15 O         139.8574  138.9906  161.8535 O.2     1  UNL1       -0.2729
     16 H         142.9117  140.6377  161.5262 H       1  UNL1        0.1494
     17 C         143.0000  137.9886  161.7129 C.3     1  UNL1        0.0196
     18 C         142.5319  138.7595  160.5143 C.3     1  UNL1        0.0569
     19 C         142.0637  139.5304  159.3158 C.3     1  UNL1        0.0196
     20 C         142.8324  137.5798  159.6381 C.3     1  UNL1        0.0196
     21 C         140.3273  139.9633  165.2727 C.3     1  UNL1        0.1212
     22 C         140.7130  140.0578  166.7192 C.ar    1  UNL1       -0.0023
     23 C         139.6654  139.9266  167.7848 C.ar    1  UNL1       -0.0026
     24 C         140.0511  140.0212  169.2313 C.ar    1  UNL1       -0.0003
     25 C         141.4843  140.2469  169.6122 C.ar    1  UNL1       -0.0000
     26 C         142.5318  140.3781  168.5466 C.ar    1  UNL1       -0.0003
     27 C         142.1461  140.2836  167.1001 C.ar    1  UNL1       -0.0024
     28 C         143.1936  140.4148  166.0345 C.ar    1  UNL1       -0.0003
     29 C         143.5828  141.7722  165.5284 C.ar    1  UNL1       -0.0000
     30 C         144.6303  141.9034  164.4628 C.ar    1  UNL1       -0.0000
     31 C         145.2887  140.6772  163.9033 C.ar    1  UNL1       -0.0000
     32 C         144.8996  139.3198  164.4094 C.ar    1  UNL1       -0.0000
     33 C         143.8520  139.1886  165.4750 C.ar    1  UNL1       -0.0000
@<TRIPOS>BOND
     1    17    18    1
     2    18    19    1
     3    18    20    1
     4    18    13    1
     5    13    14   am
     6    14    15    2
     7    14     1    1
     8     1     2    1
     9     2     3   ar
    10     3     4   ar
    11     4     5   ar
    12     5     6    1
    13     5     7   ar
    14     7     8   ar
    15     8     9    1
    16     9    10    2
    17     9    11   am
    18    11    21    1
    19    21    22    1
    20    22    23   ar
    21    23    24   ar
    22    24    25   ar
    23    25    26   ar
    24    26    27   ar
    25    27    28    1
    26    28    29   ar
    27    29    30   ar
    28    30    31   ar
    29    31    32   ar
    30    32    33   ar
    31    11     1    1
    32    27    22   ar
    33    33    28   ar
    34     8     2   ar
    35    13    16    1
    36     6    12    1
