@<TRIPOS>MOLECULE
*****
 28 31 0 0 0
SMALL
GASTEIGER

@<TRIPOS>ATOM
      1 C         138.9014  139.0115  160.1118 C.ar    1  UNL1        0.0505
      2 C         140.3537  138.6857  160.2979 C.ar    1  UNL1        0.0178
      3 C         140.8342  138.1188  161.6008 C.ar    1  UNL1        0.0382
      4 C         139.8624  137.8776  162.7178 C.ar    1  UNL1        0.1385
      5 C         138.4100  138.2033  162.5317 C.ar    1  UNL1        0.0382
      6 C         137.9295  138.7703  161.2286 C.ar    1  UNL1        0.0178
      7 O         138.4646  141.9663  159.8318 O.2     1  UNL1       -0.2733
      8 C         138.2025  141.0558  158.6688 C.2     1  UNL1        0.2425
      9 N         138.4209  139.5784  158.8089 N.am    1  UNL1       -0.2828
     10 H         138.2488  138.9808  158.0456 H       1  UNL1        0.1549
     11 C         137.7220  141.6228  157.3659 C.3     1  UNL1        0.1589
     12 N         137.0018  140.7446  156.3859 N.3     1  UNL1       -0.2607
     13 C         137.7789  139.9515  155.3775 C.3     1  UNL1        0.1050
     14 C         137.0587  139.0734  154.3976 C.3     1  UNL1        0.1595
     15 O         135.5614  138.9884  154.4262 O.3     1  UNL1       -0.3508
     16 C         134.7842  139.7816  155.4346 C.3     1  UNL1        0.1595
     17 C         135.5044  140.6597  156.4145 C.3     1  UNL1        0.1050
     18 O         140.3429  137.3106  164.0207 O.3     1  UNL1       -0.4791
     19 C         140.9315  138.2166  165.0613 C.3     1  UNL1        0.1687
     20 C         140.0483  139.1656  165.8157 C.3     1  UNL1        0.0609
     21 C         140.6368  140.0716  166.8563 C.3     1  UNL1        0.0758
     22 N         142.1086  140.0285  167.1424 N.3     1  UNL1       -0.2737
     23 C         142.9918  139.0795  166.3880 C.3     1  UNL1        0.0758
     24 C         142.4032  138.1735  165.3474 C.3     1  UNL1        0.0609
     25 C         142.6972  140.9345  168.1830 C.3     1  UNL1        0.0575
     26 C         143.0094  140.8088  169.6448 C.3     1  UNL1        0.0160
     27 C         143.5296  142.2157  169.6546 C.3     1  UNL1        0.0028
     28 C         143.2174  142.3414  168.1928 C.3     1  UNL1        0.0160
@<TRIPOS>BOND
     1     7     8    2
     2     8    11    1
     3    11    12    1
     4    12    13    1
     5    13    14    1
     6    14    15    1
     7    15    16    1
     8    16    17    1
     9     8     9   am
    10     9     1    1
    11     1     2   ar
    12     2     3   ar
    13     3     4   ar
    14     4    18    1
    15    18    19    1
    16    19    20    1
    17    20    21    1
    18    21    22    1
    19    22    25    1
    20    25    26    1
    21    26    27    1
    22    27    28    1
    23    22    23    1
    24    23    24    1
    25     4     5   ar
    26     5     6   ar
    27    17    12    1
    28     6     1   ar
    29    24    19    1
    30    28    25    1
    31     9    10    1
@<TRIPOS>MOLECULE
*****
 28 31 0 0 0
SMALL
GASTEIGER

@<TRIPOS>ATOM
      1 C         138.9766  139.0779  159.5818 C.ar    1  UNL1        0.0505
      2 C         139.1174  138.2145  160.8003 C.ar    1  UNL1        0.0178
      3 C         138.6651  138.7238  162.1367 C.ar    1  UNL1        0.0382
      4 C         138.0721  140.0966  162.2547 C.ar    1  UNL1        0.1385
      5 C         137.9314  140.9600  161.0362 C.ar    1  UNL1        0.0382
      6 C         138.3836  140.4507  159.6998 C.ar    1  UNL1        0.0178
      7 O         141.8651  139.2824  158.7978 O.2     1  UNL1       -0.2733
      8 C         140.8731  138.6709  157.8533 C.2     1  UNL1        0.2425
      9 N         139.4288  138.5686  158.2454 N.am    1  UNL1       -0.2828
     10 H         138.7777  138.1672  157.6256 H       1  UNL1        0.1549
     11 C         141.3254  138.1616  156.5169 C.3     1  UNL1        0.1589
     12 N         141.7106  136.7210  156.3545 N.3     1  UNL1       -0.2607
     13 C         142.8356  136.1494  157.1654 C.3     1  UNL1        0.1050
     14 C         143.2208  134.7089  157.0029 C.3     1  UNL1        0.1595
     15 O         142.4810  133.8399  156.0295 O.3     1  UNL1       -0.3508
     16 C         141.3560  134.4114  155.2186 C.3     1  UNL1        0.1595
     17 C         140.9708  135.8520  155.3811 C.3     1  UNL1        0.1050
     18 O         137.6199  140.6059  163.5911 O.3     1  UNL1       -0.4791
     19 C         138.4869  140.4129  164.7999 C.3     1  UNL1        0.1687
     20 C         139.7734  141.1731  164.9292 C.3     1  UNL1        0.0609
     21 C         140.6404  140.9801  166.1379 C.3     1  UNL1        0.0758
     22 N         140.2209  140.0269  167.2173 N.3     1  UNL1       -0.2737
     23 C         138.9343  139.2666  167.0880 C.3     1  UNL1        0.0758
     24 C         138.0673  139.4596  165.8793 C.3     1  UNL1        0.0609
     25 C         141.0879  139.8338  168.4261 C.3     1  UNL1        0.0575
     26 C         142.5343  139.5072  168.6527 C.3     1  UNL1        0.0160
     27 C         142.3140  139.5609  170.1355 C.3     1  UNL1        0.0028
     28 C         140.8677  139.8876  169.9089 C.3     1  UNL1        0.0160
@<TRIPOS>BOND
     1     7     8    2
     2     8    11    1
     3    11    12    1
     4    12    13    1
     5    13    14    1
     6    14    15    1
     7    15    16    1
     8    16    17    1
     9     8     9   am
    10     9     1    1
    11     1     2   ar
    12     2     3   ar
    13     3     4   ar
    14     4    18    1
    15    18    19    1
    16    19    20    1
    17    20    21    1
    18    21    22    1
    19    22    25    1
    20    25    26    1
    21    26    27    1
    22    27    28    1
    23    22    23    1
    24    23    24    1
    25     4     5   ar
    26     5     6   ar
    27    17    12    1
    28     6     1   ar
    29    24    19    1
    30    28    25    1
    31     9    10    1
@<TRIPOS>MOLECULE
*****
 28 31 0 0 0
SMALL
GASTEIGER

@<TRIPOS>ATOM
      1 C         138.4529  139.4715  159.6124 C.ar    1  UNL1        0.0505
      2 C         139.8221  138.8740  159.7468 C.ar    1  UNL1        0.0178
      3 C         140.2363  138.2303  161.0368 C.ar    1  UNL1        0.0382
      4 C         139.2811  138.1842  162.1925 C.ar    1  UNL1        0.1385
      5 C         137.9118  138.7817  162.0582 C.ar    1  UNL1        0.0382
      6 C         137.4978  139.4254  160.7681 C.ar    1  UNL1        0.0178
      7 O         138.3520  142.4618  159.3928 O.2     1  UNL1       -0.2733
      8 C         137.9883  141.6104  158.2126 C.2     1  UNL1        0.2425
      9 N         138.0388  140.1152  158.3224 N.am    1  UNL1       -0.2828
     10 H         137.8001  139.5564  157.5479 H       1  UNL1        0.1549
     11 C         137.5742  142.2541  156.9226 C.3     1  UNL1        0.1589
     12 N         136.8897  141.4406  155.8643 N.3     1  UNL1       -0.2607
     13 C         135.4901  140.9482  156.0850 C.3     1  UNL1        0.1050
     14 C         134.8057  140.1348  155.0267 C.3     1  UNL1        0.1595
     15 O         135.5208  139.8138  153.7479 O.3     1  UNL1       -0.3508
     16 C         136.9204  140.3062  153.5272 C.3     1  UNL1        0.1595
     17 C         137.6048  141.1196  154.5854 C.3     1  UNL1        0.1050
     18 O         139.6952  137.5405  163.4825 O.3     1  UNL1       -0.4791
     19 C         139.7135  138.3434  164.7494 C.3     1  UNL1        0.1687
     20 C         140.9240  139.1543  165.1060 C.3     1  UNL1        0.0609
     21 C         140.9422  139.9572  166.3729 C.3     1  UNL1        0.0758
     22 N         139.7501  139.9493  167.2831 N.3     1  UNL1       -0.2737
     23 C         138.5396  139.1384  166.9265 C.3     1  UNL1        0.0758
     24 C         138.5213  138.3355  165.6596 C.3     1  UNL1        0.0609
     25 C         139.7683  140.7522  168.5500 C.3     1  UNL1        0.0575
     26 C         140.3661  142.0636  168.9661 C.3     1  UNL1        0.0160
     27 C         139.7942  141.8877  170.3416 C.3     1  UNL1        0.0028
     28 C         139.1964  140.5764  169.9256 C.3     1  UNL1        0.0160
@<TRIPOS>BOND
     1     7     8    2
     2     8    11    1
     3    11    12    1
     4    12    13    1
     5    13    14    1
     6    14    15    1
     7    15    16    1
     8    16    17    1
     9     8     9   am
    10     9     1    1
    11     1     2   ar
    12     2     3   ar
    13     3     4   ar
    14     4    18    1
    15    18    19    1
    16    19    20    1
    17    20    21    1
    18    21    22    1
    19    22    25    1
    20    25    26    1
    21    26    27    1
    22    27    28    1
    23    22    23    1
    24    23    24    1
    25     4     5   ar
    26     5     6   ar
    27    17    12    1
    28     6     1   ar
    29    24    19    1
    30    28    25    1
    31     9    10    1
@<TRIPOS>MOLECULE
*****
 28 31 0 0 0
SMALL
GASTEIGER

@<TRIPOS>ATOM
      1 C         143.1633  138.7634  159.9378 C.ar    1  UNL1        0.0505
      2 C         144.1296  138.8133  161.0839 C.ar    1  UNL1        0.0178
      3 C         143.6763  138.4393  162.4639 C.ar    1  UNL1        0.0382
      4 C         142.2565  138.0155  162.6979 C.ar    1  UNL1        0.1385
      5 C         141.2901  137.9656  161.5518 C.ar    1  UNL1        0.0382
      6 C         141.7436  138.3396  160.1717 C.ar    1  UNL1        0.0178
      7 O         142.7511  141.5587  158.9295 O.2     1  UNL1       -0.2733
      8 C         143.4105  140.5351  158.0535 C.2     1  UNL1        0.2425
      9 N         143.6166  139.1374  158.5577 N.am    1  UNL1       -0.2828
     10 H         144.0494  138.4655  157.9828 H       1  UNL1        0.1549
     11 C         143.8638  140.9090  156.6735 C.3     1  UNL1        0.1589
     12 N         145.2611  141.4081  156.4525 N.3     1  UNL1       -0.2607
     13 C         145.8826  142.3570  157.4339 C.3     1  UNL1        0.1050
     14 C         147.2797  142.8560  157.2129 C.3     1  UNL1        0.1595
     15 O         148.0554  142.4061  156.0104 O.3     1  UNL1       -0.3508
     16 C         147.4339  141.4572  155.0290 C.3     1  UNL1        0.1595
     17 C         146.0367  140.9582  155.2500 C.3     1  UNL1        0.1050
     18 O         141.8032  137.6415  164.0780 O.3     1  UNL1       -0.4791
     19 C         141.7454  138.6826  165.1563 C.3     1  UNL1        0.1687
     20 C         142.7636  138.6790  166.2577 C.3     1  UNL1        0.0609
     21 C         142.7058  139.7201  167.3360 C.3     1  UNL1        0.0758
     22 N         141.6298  140.7648  167.3129 N.3     1  UNL1       -0.2737
     23 C         140.6115  140.7684  166.2115 C.3     1  UNL1        0.0758
     24 C         140.6693  139.7273  165.1332 C.3     1  UNL1        0.0609
     25 C         141.5720  141.8059  168.3912 C.3     1  UNL1        0.0575
     26 C         142.5881  142.5136  169.2379 C.3     1  UNL1        0.0160
     27 C         141.4903  143.2782  169.9162 C.3     1  UNL1        0.0028
     28 C         140.4742  142.5706  169.0696 C.3     1  UNL1        0.0160
@<TRIPOS>BOND
     1     7     8    2
     2     8    11    1
     3    11    12    1
     4    12    13    1
     5    13    14    1
     6    14    15    1
     7    15    16    1
     8    16    17    1
     9     8     9   am
    10     9     1    1
    11     1     2   ar
    12     2     3   ar
    13     3     4   ar
    14     4    18    1
    15    18    19    1
    16    19    20    1
    17    20    21    1
    18    21    22    1
    19    22    25    1
    20    25    26    1
    21    26    27    1
    22    27    28    1
    23    22    23    1
    24    23    24    1
    25     4     5   ar
    26     5     6   ar
    27    17    12    1
    28     6     1   ar
    29    24    19    1
    30    28    25    1
    31     9    10    1
@<TRIPOS>MOLECULE
*****
 28 31 0 0 0
SMALL
GASTEIGER

@<TRIPOS>ATOM
      1 C         139.7925  138.5850  160.6675 C.ar    1  UNL1        0.0505
      2 C         140.4225  138.0080  161.9005 C.ar    1  UNL1        0.0178
      3 C         139.8293  138.2915  163.2487 C.ar    1  UNL1        0.0382
      4 C         138.6060  139.1521  163.3640 C.ar    1  UNL1        0.1385
      5 C         137.9761  139.7291  162.1310 C.ar    1  UNL1        0.0382
      6 C         138.5694  139.4455  160.7827 C.ar    1  UNL1        0.0178
      7 O         142.0822  140.2399  159.6581 O.2     1  UNL1       -0.2733
      8 C         141.5306  139.1289  158.8146 C.2     1  UNL1        0.2425
      9 N         140.3858  138.3015  159.3193 N.am    1  UNL1       -0.2828
     10 H         140.0237  137.5723  158.7657 H       1  UNL1        0.1549
     11 C         142.1238  138.8454  157.4664 C.3     1  UNL1        0.1589
     12 N         141.9427  137.4964  156.8359 N.3     1  UNL1       -0.2607
     13 C         140.8577  137.2816  155.8227 C.3     1  UNL1        0.1050
     14 C         140.6767  135.9326  155.1923 C.3     1  UNL1        0.1595
     15 O         141.5806  134.7984  155.5751 O.3     1  UNL1       -0.3508
     16 C         142.6655  135.0132  156.5884 C.3     1  UNL1        0.1595
     17 C         142.8466  136.3622  157.2188 C.3     1  UNL1        0.1050
     18 O         138.0128  139.4356  164.7121 O.3     1  UNL1       -0.4791
     19 C         138.8263  140.1416  165.7561 C.3     1  UNL1        0.1687
     20 C         139.0444  139.5030  167.0957 C.3     1  UNL1        0.0609
     21 C         139.8579  140.2090  168.1396 C.3     1  UNL1        0.0758
     22 N         140.4534  141.5536  167.8439 N.3     1  UNL1       -0.2737
     23 C         140.2353  142.1922  166.5043 C.3     1  UNL1        0.0758
     24 C         139.4218  141.4862  165.4604 C.3     1  UNL1        0.0609
     25 C         141.2669  142.2595  168.8879 C.3     1  UNL1        0.0575
     26 C         140.9991  143.3484  169.8843 C.3     1  UNL1        0.0160
     27 C         142.4173  143.2579  170.3642 C.3     1  UNL1        0.0028
     28 C         142.6852  142.1692  169.3678 C.3     1  UNL1        0.0160
@<TRIPOS>BOND
     1     7     8    2
     2     8    11    1
     3    11    12    1
     4    12    13    1
     5    13    14    1
     6    14    15    1
     7    15    16    1
     8    16    17    1
     9     8     9   am
    10     9     1    1
    11     1     2   ar
    12     2     3   ar
    13     3     4   ar
    14     4    18    1
    15    18    19    1
    16    19    20    1
    17    20    21    1
    18    21    22    1
    19    22    25    1
    20    25    26    1
    21    26    27    1
    22    27    28    1
    23    22    23    1
    24    23    24    1
    25     4     5   ar
    26     5     6   ar
    27    17    12    1
    28     6     1   ar
    29    24    19    1
    30    28    25    1
    31     9    10    1
@<TRIPOS>MOLECULE
*****
 28 31 0 0 0
SMALL
GASTEIGER

@<TRIPOS>ATOM
      1 C         139.2097  138.9543  159.7085 C.ar    1  UNL1        0.0505
      2 C         138.6628  140.3403  159.8812 C.ar    1  UNL1        0.0178
      3 C         138.1653  140.7885  161.2235 C.ar    1  UNL1        0.0382
      4 C         138.2147  139.8505  162.3931 C.ar    1  UNL1        0.1385
      5 C         138.7616  138.4645  162.2204 C.ar    1  UNL1        0.0382
      6 C         139.2591  138.0164  160.8780 C.ar    1  UNL1        0.0178
      7 O         142.1563  138.6821  159.2152 O.2     1  UNL1       -0.2733
      8 C         141.1805  138.3701  158.1196 C.2     1  UNL1        0.2425
      9 N         139.7071  138.5062  158.3663 N.am    1  UNL1       -0.2828
     10 H         139.0666  138.3013  157.6472 H       1  UNL1        0.1549
     11 C         141.6779  137.9219  156.7773 C.3     1  UNL1        0.1589
     12 N         141.9249  136.4654  156.5170 N.3     1  UNL1       -0.2607
     13 C         141.1073  135.7377  155.4913 C.3     1  UNL1        0.1050
     14 C         141.3543  134.2813  155.2310 C.3     1  UNL1        0.1595
     15 O         142.4189  133.5526  155.9963 O.3     1  UNL1       -0.3508
     16 C         143.2364  134.2803  157.0220 C.3     1  UNL1        0.1595
     17 C         142.9895  135.7367  157.2823 C.3     1  UNL1        0.1050
     18 O         137.7173  140.2987  163.7353 O.3     1  UNL1       -0.4791
     19 C         138.6368  140.2804  164.9203 C.3     1  UNL1        0.1687
     20 C         138.2346  139.5557  166.1705 C.3     1  UNL1        0.0609
     21 C         139.1541  139.5375  167.3556 C.3     1  UNL1        0.0758
     22 N         140.4757  140.2439  167.2904 N.3     1  UNL1       -0.2737
     23 C         140.8778  140.9686  166.0402 C.3     1  UNL1        0.0758
     24 C         139.9584  140.9869  164.8551 C.3     1  UNL1        0.0609
     25 C         141.3952  140.2257  168.4754 C.3     1  UNL1        0.0575
     26 C         142.7162  140.8565  168.8027 C.3     1  UNL1        0.0160
     27 C         142.6955  140.1998  170.1512 C.3     1  UNL1        0.0028
     28 C         141.3745  139.5690  169.8239 C.3     1  UNL1        0.0160
@<TRIPOS>BOND
     1     7     8    2
     2     8    11    1
     3    11    12    1
     4    12    13    1
     5    13    14    1
     6    14    15    1
     7    15    16    1
     8    16    17    1
     9     8     9   am
    10     9     1    1
    11     1     2   ar
    12     2     3   ar
    13     3     4   ar
    14     4    18    1
    15    18    19    1
    16    19    20    1
    17    20    21    1
    18    21    22    1
    19    22    25    1
    20    25    26    1
    21    26    27    1
    22    27    28    1
    23    22    23    1
    24    23    24    1
    25     4     5   ar
    26     5     6   ar
    27    17    12    1
    28     6     1   ar
    29    24    19    1
    30    28    25    1
    31     9    10    1
@<TRIPOS>MOLECULE
*****
 28 31 0 0 0
SMALL
GASTEIGER

@<TRIPOS>ATOM
      1 C         140.8482  139.2291  160.5592 C.ar    1  UNL1        0.0505
      2 C         142.0538  138.4164  160.9280 C.ar    1  UNL1        0.0178
      3 C         142.8503  137.7286  159.8592 C.ar    1  UNL1        0.0382
      4 C         142.4411  137.8535  158.4214 C.ar    1  UNL1        0.1385
      5 C         141.2355  138.6662  158.0526 C.ar    1  UNL1        0.0382
      6 C         140.4390  139.3540  159.1216 C.ar    1  UNL1        0.0178
      7 O         138.7537  137.7120  162.0796 O.2     1  UNL1       -0.2733
      8 C         139.0044  139.1583  162.3883 C.2     1  UNL1        0.2425
      9 N         140.0517  139.9169  161.6281 N.am    1  UNL1       -0.2828
     10 H         140.2163  140.8661  161.8307 H       1  UNL1        0.1549
     11 C         138.2079  139.8461  163.4572 C.3     1  UNL1        0.1589
     12 N         138.3532  141.3243  163.6668 N.3     1  UNL1       -0.2607
     13 C         139.2300  141.8431  164.7677 C.3     1  UNL1        0.1050
     14 C         139.3753  143.3212  164.9773 C.3     1  UNL1        0.1595
     15 O         138.6437  144.2806  164.0860 O.3     1  UNL1       -0.3508
     16 C         137.7669  143.7618  162.9851 C.3     1  UNL1        0.1595
     17 C         137.6216  142.2837  162.7755 C.3     1  UNL1        0.1050
     18 O         143.2376  137.1657  157.3525 O.3     1  UNL1       -0.4791
     19 C         142.8190  135.8126  156.8587 C.3     1  UNL1        0.1687
     20 C         143.4370  134.5769  157.4426 C.3     1  UNL1        0.0609
     21 C         143.0183  133.2238  156.9488 C.3     1  UNL1        0.0758
     22 N         141.9816  133.1065  155.8711 N.3     1  UNL1       -0.2737
     23 C         141.3636  134.3422  155.2872 C.3     1  UNL1        0.0758
     24 C         141.7823  135.6953  155.7810 C.3     1  UNL1        0.0609
     25 C         141.5630  131.7534  155.3772 C.3     1  UNL1        0.0575
     26 C         142.1314  130.3682  155.4689 C.3     1  UNL1        0.0160
     27 C         140.9709  129.8398  154.6789 C.3     1  UNL1        0.0028
     28 C         140.4025  131.2249  154.5872 C.3     1  UNL1        0.0160
@<TRIPOS>BOND
     1     7     8    2
     2     8    11    1
     3    11    12    1
     4    12    13    1
     5    13    14    1
     6    14    15    1
     7    15    16    1
     8    16    17    1
     9     8     9   am
    10     9     1    1
    11     1     2   ar
    12     2     3   ar
    13     3     4   ar
    14     4    18    1
    15    18    19    1
    16    19    20    1
    17    20    21    1
    18    21    22    1
    19    22    25    1
    20    25    26    1
    21    26    27    1
    22    27    28    1
    23    22    23    1
    24    23    24    1
    25     4     5   ar
    26     5     6   ar
    27    17    12    1
    28     6     1   ar
    29    24    19    1
    30    28    25    1
    31     9    10    1
@<TRIPOS>MOLECULE
*****
 28 31 0 0 0
SMALL
GASTEIGER

@<TRIPOS>ATOM
      1 C         140.9202  145.7404  157.9387 C.ar    1  UNL1        0.0505
      2 C         142.0975  144.9478  157.4532 C.ar    1  UNL1        0.0178
      3 C         142.7337  143.9255  158.3476 C.ar    1  UNL1        0.0382
      4 C         142.1926  143.6956  159.7276 C.ar    1  UNL1        0.1385
      5 C         141.0153  144.4882  160.2132 C.ar    1  UNL1        0.0382
      6 C         140.3791  145.5107  159.3187 C.ar    1  UNL1        0.0178
      7 O         138.9124  144.8894  155.8785 O.2     1  UNL1       -0.2733
      8 C         139.2801  146.3373  156.0141 C.2     1  UNL1        0.2425
      9 N         140.2841  146.7628  157.0443 N.am    1  UNL1       -0.2828
     10 H         140.5254  147.7131  157.1334 H       1  UNL1        0.1549
     11 C         138.6440  147.3597  155.1197 C.3     1  UNL1        0.1589
     12 N         139.1087  148.7853  155.1610 N.3     1  UNL1       -0.2607
     13 C         140.2087  149.2423  154.2492 C.3     1  UNL1        0.1050
     14 C         140.6734  150.6678  154.2904 C.3     1  UNL1        0.1595
     15 O         140.0381  151.6365  155.2434 O.3     1  UNL1       -0.3508
     16 C         138.9382  151.1796  156.1552 C.3     1  UNL1        0.1595
     17 C         138.4735  149.7540  156.1140 C.3     1  UNL1        0.1050
     18 O         142.8287  142.6733  160.6220 O.3     1  UNL1       -0.4791
     19 C         142.0331  142.0451  161.7277 C.3     1  UNL1        0.1687
     20 C         142.2291  142.4988  163.1439 C.3     1  UNL1        0.0609
     21 C         141.4335  141.8706  164.2496 C.3     1  UNL1        0.0758
     22 N         140.4420  140.7888  163.9390 N.3     1  UNL1       -0.2737
     23 C         140.2460  140.3351  162.5228 C.3     1  UNL1        0.0758
     24 C         141.0416  140.9633  161.4171 C.3     1  UNL1        0.0609
     25 C         139.6464  140.1607  165.0447 C.3     1  UNL1        0.0575
     26 C         139.9462  139.7113  166.4441 C.3     1  UNL1        0.0160
     27 C         138.5213  139.2723  166.6083 C.3     1  UNL1        0.0028
     28 C         138.2215  139.7217  165.2090 C.3     1  UNL1        0.0160
@<TRIPOS>BOND
     1     7     8    2
     2     8    11    1
     3    11    12    1
     4    12    13    1
     5    13    14    1
     6    14    15    1
     7    15    16    1
     8    16    17    1
     9     8     9   am
    10     9     1    1
    11     1     2   ar
    12     2     3   ar
    13     3     4   ar
    14     4    18    1
    15    18    19    1
    16    19    20    1
    17    20    21    1
    18    21    22    1
    19    22    25    1
    20    25    26    1
    21    26    27    1
    22    27    28    1
    23    22    23    1
    24    23    24    1
    25     4     5   ar
    26     5     6   ar
    27    17    12    1
    28     6     1   ar
    29    24    19    1
    30    28    25    1
    31     9    10    1
@<TRIPOS>MOLECULE
*****
 28 31 0 0 0
SMALL
GASTEIGER

@<TRIPOS>ATOM
      1 C         142.4605  138.5842  159.9245 C.ar    1  UNL1        0.0505
      2 C         143.5700  138.0134  160.7571 C.ar    1  UNL1        0.0178
      3 C         144.0677  138.7617  161.9581 C.ar    1  UNL1        0.0382
      4 C         143.4558  140.0808  162.3265 C.ar    1  UNL1        0.1385
      5 C         142.3464  140.6516  161.4939 C.ar    1  UNL1        0.0382
      6 C         141.8487  139.9033  160.2928 C.ar    1  UNL1        0.0178
      7 O         143.8886  138.8419  157.2988 O.2     1  UNL1       -0.2733
      8 C         142.6769  137.9648  157.4106 C.2     1  UNL1        0.2425
      9 N         141.9629  137.8360  158.7235 N.am    1  UNL1       -0.2828
     10 H         141.1676  137.2603  158.7969 H       1  UNL1        0.1549
     11 C         142.1793  137.2165  156.2096 C.3     1  UNL1        0.1589
     12 N         142.2294  135.7175  156.1860 N.3     1  UNL1       -0.2607
     13 C         143.2167  134.9865  157.0467 C.3     1  UNL1        0.1050
     14 C         143.2667  133.4875  157.0231 C.3     1  UNL1        0.1595
     15 O         142.3295  132.7196  156.1388 O.3     1  UNL1       -0.3508
     16 C         141.3422  133.4507  155.2781 C.3     1  UNL1        0.1595
     17 C         141.2922  134.9496  155.3018 C.3     1  UNL1        0.1050
     18 O         143.9535  140.8291  163.5275 O.3     1  UNL1       -0.4791
     19 C         143.2424  140.6963  164.8416 C.3     1  UNL1        0.1687
     20 C         142.7431  139.3555  165.2921 C.3     1  UNL1        0.0609
     21 C         142.0321  139.2228  166.6061 C.3     1  UNL1        0.0758
     22 N         141.8203  140.4308  167.4697 N.3     1  UNL1       -0.2737
     23 C         142.3196  141.7716  167.0192 C.3     1  UNL1        0.0758
     24 C         143.0307  141.9043  165.7051 C.3     1  UNL1        0.0609
     25 C         141.1092  140.2981  168.7838 C.3     1  UNL1        0.0575
     26 C         141.4642  139.7403  170.1303 C.3     1  UNL1        0.0160
     27 C         140.1037  140.1103  170.6421 C.3     1  UNL1        0.0028
     28 C         139.7487  140.6681  169.2957 C.3     1  UNL1        0.0160
@<TRIPOS>BOND
     1     7     8    2
     2     8    11    1
     3    11    12    1
     4    12    13    1
     5    13    14    1
     6    14    15    1
     7    15    16    1
     8    16    17    1
     9     8     9   am
    10     9     1    1
    11     1     2   ar
    12     2     3   ar
    13     3     4   ar
    14     4    18    1
    15    18    19    1
    16    19    20    1
    17    20    21    1
    18    21    22    1
    19    22    25    1
    20    25    26    1
    21    26    27    1
    22    27    28    1
    23    22    23    1
    24    23    24    1
    25     4     5   ar
    26     5     6   ar
    27    17    12    1
    28     6     1   ar
    29    24    19    1
    30    28    25    1
    31     9    10    1
