@<TRIPOS>MOLECULE
*****
 37 39 0 0 0
SMALL
GASTEIGER

@<TRIPOS>ATOM
      1 C         141.3246  138.6468  163.4626 C.2     1  UNL1        0.2418
      2 O         140.5615  137.4037  163.1127 O.2     1  UNL1       -0.2738
      3 N         141.9688  139.4611  162.3801 N.am    1  UNL1       -0.2832
      4 H         142.4696  140.2770  162.6098 H       1  UNL1        0.1549
      5 C         141.8006  140.3614  169.1927 C.ar    1  UNL1        0.0625
      6 C         140.5678  140.5259  170.0312 C.ar    1  UNL1        0.0452
      7 C         139.2160  140.2617  169.4372 C.ar    1  UNL1        0.1415
      8 F         137.9832  140.4262  170.2758 F       1  UNL1       -0.2041
      9 C         139.0970  139.8331  168.0047 C.ar    1  UNL1        0.0337
     10 C         140.3298  139.6686  167.1663 C.ar    1  UNL1        0.0492
     11 C         140.2108  139.2399  165.7337 C.2     1  UNL1        0.1296
     12 O         138.8590  138.9757  165.1397 O.2     1  UNL1       -0.5088
     13 C         141.4436  139.0754  164.8952 C.3     1  UNL1        0.2107
     14 C         142.7954  139.3396  165.4892 C.2     1  UNL1        0.2613
     15 O         144.0283  139.1751  164.6506 O.2     1  UNL1       -0.2720
     16 N         142.9144  139.7683  166.9217 N.am    1  UNL1       -0.1771
     17 C         141.6816  139.9328  167.7602 C.ar    1  UNL1        0.0891
     18 H         138.0889  139.0785  165.6635 H       1  UNL1        0.2917
     19 C         143.7027  142.0209  169.8078 C.3     1  UNL1        0.1086
     20 N         143.1524  140.6256  169.7867 N.pl3   1  UNL1       -0.3302
     21 H         143.6785  139.8833  170.1627 H       1  UNL1        0.1469
     22 C         141.8498  139.0324  160.9477 C.ar    1  UNL1        0.0503
     23 C         142.8813  138.1227  160.3489 C.ar    1  UNL1        0.0148
     24 C         142.7623  137.6940  158.9164 C.ar    1  UNL1        0.0058
     25 C         141.6118  138.1750  158.0826 C.ar    1  UNL1        0.0550
     26 C         140.5804  139.0847  158.6814 C.ar    1  UNL1        0.0058
     27 C         140.6993  139.5134  160.1139 C.ar    1  UNL1        0.0148
     28 C         141.4928  137.7463  156.6502 C.2     1  UNL1        0.2651
     29 O         142.0037  138.6362  155.5561 O.2     1  UNL1       -0.2685
     30 N         140.8629  136.4276  156.3118 N.am    1  UNL1       -0.1714
     31 H         140.5276  135.8436  157.0298 H       1  UNL1        0.1779
     32 S         140.7439  135.9989  154.8793 S.O2    1  UNL1        0.1154
     33 O         139.4041  136.6674  154.7905 O.2     1  UNL1       -0.1378
     34 O         142.0838  135.3305  154.9681 O.2     1  UNL1       -0.1378
     35 N         140.6249  135.5703  153.4467 N.3     1  UNL1       -0.1398
     36 C         141.4981  134.4713  152.9177 C.3     1  UNL1        0.1163
     37 C         139.6327  136.2405  152.5433 C.3     1  UNL1        0.1163
@<TRIPOS>BOND
     1    19    20    1
     2    20     5    1
     3     5     6   ar
     4     6     7   ar
     5     7     8    1
     6     7     9   ar
     7     9    10   ar
     8    10    11    2
     9    11    12    1
    10    11    13    1
    11    13     1    1
    12     1     2    2
    13     1     3   am
    14     3    22    1
    15    22    23   ar
    16    23    24   ar
    17    24    25   ar
    18    25    28    1
    19    28    29    2
    20    28    30   am
    21    30    32    1
    22    32    33    2
    23    32    34    2
    24    32    35    1
    25    35    36    1
    26    35    37    1
    27    25    26   ar
    28    26    27   ar
    29    13    14    1
    30    14    15    2
    31    14    16    1
    32    16    17    2
    33    17     5   ar
    34    17    10   ar
    35    27    22   ar
    36    20    21    1
    37    12    18    1
    38     3     4    1
    39    30    31    1
@<TRIPOS>MOLECULE
*****
 37 39 0 0 0
SMALL
GASTEIGER

@<TRIPOS>ATOM
      1 C         141.3229  139.9012  164.2400 C.2     1  UNL1        0.2418
      2 O         141.3432  141.1743  163.4470 O.2     1  UNL1       -0.2738
      3 N         141.0430  138.5960  163.5560 N.am    1  UNL1       -0.2832
      4 H         141.0297  137.7604  164.0765 H       1  UNL1        0.1549
      5 C         142.3618  140.0301  170.1480 C.ar    1  UNL1        0.0625
      6 C         141.5870  140.9681  171.0255 C.ar    1  UNL1        0.0452
      7 C         140.5525  141.8738  170.4259 C.ar    1  UNL1        0.1415
      8 F         139.7777  142.8118  171.3034 F       1  UNL1       -0.2041
      9 C         140.2928  141.8416  168.9490 C.ar    1  UNL1        0.0337
     10 C         141.0676  140.9037  168.0715 C.ar    1  UNL1        0.0492
     11 C         140.8079  140.8714  166.5945 C.2     1  UNL1        0.1296
     12 O         139.7734  141.7772  165.9950 O.2     1  UNL1       -0.5088
     13 C         141.5826  139.9335  165.7171 C.3     1  UNL1        0.2107
     14 C         142.6171  139.0277  166.3166 C.2     1  UNL1        0.2613
     15 O         143.3919  138.0897  165.4391 O.2     1  UNL1       -0.2720
     16 N         142.8769  139.0599  167.7935 N.am    1  UNL1       -0.1771
     17 C         142.1021  139.9979  168.6711 C.ar    1  UNL1        0.0891
     18 H         139.2894  142.3631  166.5431 H       1  UNL1        0.2917
     19 C         143.2655  137.6371  170.6029 C.3     1  UNL1        0.1086
     20 N         143.3963  139.1244  170.7476 N.pl3   1  UNL1       -0.3302
     21 H         144.1611  139.5060  171.2360 H       1  UNL1        0.1469
     22 C         140.7833  138.5638  162.0791 C.ar    1  UNL1        0.0503
     23 C         139.3774  138.6477  161.5627 C.ar    1  UNL1        0.0148
     24 C         139.1177  138.6155  160.0858 C.ar    1  UNL1        0.0058
     25 C         140.2639  138.4994  159.1251 C.ar    1  UNL1        0.0550
     26 C         141.6697  138.4155  159.6414 C.ar    1  UNL1        0.0058
     27 C         141.9294  138.4477  161.1184 C.ar    1  UNL1        0.0148
     28 C         140.0042  138.4672  157.6481 C.2     1  UNL1        0.2651
     29 O         139.8137  139.7486  156.8920 O.2     1  UNL1       -0.2685
     30 N         139.9350  137.1536  156.9272 N.am    1  UNL1       -0.1714
     31 H         140.0600  136.3126  157.4234 H       1  UNL1        0.1779
     32 S         139.6753  137.1214  155.4502 S.O2    1  UNL1        0.1154
     33 O         138.2001  137.0468  155.7112 O.2     1  UNL1       -0.1378
     34 O         141.1505  137.1960  155.1892 O.2     1  UNL1       -0.1378
     35 N         139.4155  137.0892  153.9732 N.3     1  UNL1       -0.1398
     36 C         138.0483  137.4083  153.4450 C.3     1  UNL1        0.1163
     37 C         140.5229  136.7380  153.0244 C.3     1  UNL1        0.1163
@<TRIPOS>BOND
     1    19    20    1
     2    20     5    1
     3     5     6   ar
     4     6     7   ar
     5     7     8    1
     6     7     9   ar
     7     9    10   ar
     8    10    11    2
     9    11    12    1
    10    11    13    1
    11    13     1    1
    12     1     2    2
    13     1     3   am
    14     3    22    1
    15    22    23   ar
    16    23    24   ar
    17    24    25   ar
    18    25    28    1
    19    28    29    2
    20    28    30   am
    21    30    32    1
    22    32    33    2
    23    32    34    2
    24    32    35    1
    25    35    36    1
    26    35    37    1
    27    25    26   ar
    28    26    27   ar
    29    13    14    1
    30    14    15    2
    31    14    16    1
    32    16    17    2
    33    17     5   ar
    34    17    10   ar
    35    27    22   ar
    36    20    21    1
    37    12    18    1
    38     3     4    1
    39    30    31    1
@<TRIPOS>MOLECULE
*****
 37 39 0 0 0
SMALL
GASTEIGER

@<TRIPOS>ATOM
      1 C         141.8149  144.1908  159.6571 C.2     1  UNL1        0.2418
      2 O         142.1170  142.7273  159.7881 O.2     1  UNL1       -0.2738
      3 N         141.7580  145.0572  160.8802 N.am    1  UNL1       -0.2832
      4 H         141.5597  146.0177  160.7942 H       1  UNL1        0.1549
      5 C         140.8346  146.5786  154.2407 C.ar    1  UNL1        0.0625
      6 C         141.7356  146.2303  153.0933 C.ar    1  UNL1        0.0452
      7 C         142.8818  145.2850  153.2999 C.ar    1  UNL1        0.1415
      8 F         143.7829  144.9366  152.1523 F       1  UNL1       -0.2041
      9 C         143.1269  144.6880  154.6539 C.ar    1  UNL1        0.0337
     10 C         142.2258  145.0364  155.8014 C.ar    1  UNL1        0.0492
     11 C         142.4709  144.4394  157.1555 C.2     1  UNL1        0.1296
     12 O         143.6171  143.4941  157.3621 O.2     1  UNL1       -0.5088
     13 C         141.5699  144.7877  158.3030 C.3     1  UNL1        0.2107
     14 C         140.4237  145.7330  158.0964 C.2     1  UNL1        0.2613
     15 O         139.5226  146.0814  159.2439 O.2     1  UNL1       -0.2720
     16 N         140.1786  146.3300  156.7423 N.am    1  UNL1       -0.1771
     17 C         141.0797  145.9817  155.5948 C.ar    1  UNL1        0.0891
     18 H         144.1800  143.2765  156.6453 H       1  UNL1        0.2917
     19 C         139.9130  149.0046  154.1177 C.3     1  UNL1        0.1086
     20 N         139.6884  147.5239  154.0341 N.pl3   1  UNL1       -0.3302
     21 H         138.7887  147.1725  153.8436 H       1  UNL1        0.1469
     22 C         142.0030  144.4602  162.2343 C.ar    1  UNL1        0.0503
     23 C         140.8636  143.8701  163.0111 C.ar    1  UNL1        0.0148
     24 C         141.1087  143.2731  164.3652 C.ar    1  UNL1        0.0058
     25 C         142.4931  143.2662  164.9424 C.ar    1  UNL1        0.0550
     26 C         143.6325  143.8563  164.1656 C.ar    1  UNL1        0.0058
     27 C         143.3875  144.4534  162.8115 C.ar    1  UNL1        0.0148
     28 C         142.7382  142.6692  166.2965 C.2     1  UNL1        0.2651
     29 O         144.0111  142.9715  167.0302 O.2     1  UNL1       -0.2685
     30 N         141.7103  141.7700  166.9169 N.am    1  UNL1       -0.1714
     31 H         140.8749  141.5716  166.4354 H       1  UNL1        0.1779
     32 S         141.9554  141.1730  168.2710 S.O2    1  UNL1        0.1154
     33 O         141.2990  142.3592  168.9128 O.2     1  UNL1       -0.1378
     34 O         142.6118  139.9868  167.6292 O.2     1  UNL1       -0.1378
     35 N         142.2005  140.5760  169.6251 N.3     1  UNL1       -0.1398
     36 C         142.5381  139.1201  169.7530 C.3     1  UNL1        0.1163
     37 C         142.1079  141.4349  170.8513 C.3     1  UNL1        0.1163
@<TRIPOS>BOND
     1    19    20    1
     2    20     5    1
     3     5     6   ar
     4     6     7   ar
     5     7     8    1
     6     7     9   ar
     7     9    10   ar
     8    10    11    2
     9    11    12    1
    10    11    13    1
    11    13     1    1
    12     1     2    2
    13     1     3   am
    14     3    22    1
    15    22    23   ar
    16    23    24   ar
    17    24    25   ar
    18    25    28    1
    19    28    29    2
    20    28    30   am
    21    30    32    1
    22    32    33    2
    23    32    34    2
    24    32    35    1
    25    35    36    1
    26    35    37    1
    27    25    26   ar
    28    26    27   ar
    29    13    14    1
    30    14    15    2
    31    14    16    1
    32    16    17    2
    33    17     5   ar
    34    17    10   ar
    35    27    22   ar
    36    20    21    1
    37    12    18    1
    38     3     4    1
    39    30    31    1
@<TRIPOS>MOLECULE
*****
 37 39 0 0 0
SMALL
GASTEIGER

@<TRIPOS>ATOM
      1 C         140.0484  140.0138  163.7723 C.2     1  UNL1        0.2418
      2 O         139.7245  141.1336  162.8283 O.2     1  UNL1       -0.2738
      3 N         140.5246  138.6959  163.2374 N.am    1  UNL1       -0.2832
      4 H         140.7371  137.9610  163.8570 H       1  UNL1        0.1549
      5 C         139.4386  140.8064  169.6885 C.ar    1  UNL1        0.0625
      6 C         139.8704  142.0962  170.3208 C.ar    1  UNL1        0.0452
      7 C         140.4547  143.1879  169.4741 C.ar    1  UNL1        0.1415
      8 F         140.8865  144.4778  170.1065 F       1  UNL1       -0.2041
      9 C         140.6071  142.9898  167.9951 C.ar    1  UNL1        0.0337
     10 C         140.1753  141.7000  167.3628 C.ar    1  UNL1        0.0492
     11 C         140.3277  141.5018  165.8837 C.2     1  UNL1        0.1296
     12 O         140.9120  142.5935  165.0371 O.2     1  UNL1       -0.5088
     13 C         139.8959  140.2120  165.2514 C.3     1  UNL1        0.2107
     14 C         139.3117  139.1203  166.0981 C.2     1  UNL1        0.2613
     15 O         138.8798  137.8305  165.4657 O.2     1  UNL1       -0.2720
     16 N         139.1592  139.3184  167.5771 N.am    1  UNL1       -0.1771
     17 C         139.5911  140.6083  168.2095 C.ar    1  UNL1        0.0891
     18 H         141.1818  143.3992  165.4321 H       1  UNL1        0.2917
     19 C         137.3680  139.5198  170.5869 C.3     1  UNL1        0.1086
     20 N         138.8544  139.7147  170.5351 N.pl3   1  UNL1       -0.3302
     21 H         139.4464  139.1262  171.0569 H       1  UNL1        0.1469
     22 C         140.6770  138.4978  161.7584 C.ar    1  UNL1        0.0503
     23 C         142.0445  138.3632  161.1566 C.ar    1  UNL1        0.0148
     24 C         142.1969  138.1651  159.6777 C.ar    1  UNL1        0.0058
     25 C         140.9819  138.1016  158.8003 C.ar    1  UNL1        0.0550
     26 C         139.6145  138.2362  159.4020 C.ar    1  UNL1        0.0058
     27 C         139.4620  138.4343  160.8810 C.ar    1  UNL1        0.0148
     28 C         141.1343  137.9035  157.3213 C.2     1  UNL1        0.2651
     29 O         142.2972  138.5159  156.5985 O.2     1  UNL1       -0.2685
     30 N         140.1237  137.0929  156.5651 N.am    1  UNL1       -0.1714
     31 H         139.3604  136.6909  157.0395 H       1  UNL1        0.1779
     32 S         140.2761  136.8948  155.0861 S.O2    1  UNL1        0.1154
     33 O         139.5870  138.2041  154.8397 O.2     1  UNL1       -0.1378
     34 O         140.9652  135.5854  155.3325 O.2     1  UNL1       -0.1378
     35 N         140.4285  136.6967  153.6070 N.3     1  UNL1       -0.1398
     36 C         139.2169  136.4729  152.7515 C.3     1  UNL1        0.1163
     37 C         141.7925  136.7224  152.9835 C.3     1  UNL1        0.1163
@<TRIPOS>BOND
     1    19    20    1
     2    20     5    1
     3     5     6   ar
     4     6     7   ar
     5     7     8    1
     6     7     9   ar
     7     9    10   ar
     8    10    11    2
     9    11    12    1
    10    11    13    1
    11    13     1    1
    12     1     2    2
    13     1     3   am
    14     3    22    1
    15    22    23   ar
    16    23    24   ar
    17    24    25   ar
    18    25    28    1
    19    28    29    2
    20    28    30   am
    21    30    32    1
    22    32    33    2
    23    32    34    2
    24    32    35    1
    25    35    36    1
    26    35    37    1
    27    25    26   ar
    28    26    27   ar
    29    13    14    1
    30    14    15    2
    31    14    16    1
    32    16    17    2
    33    17     5   ar
    34    17    10   ar
    35    27    22   ar
    36    20    21    1
    37    12    18    1
    38     3     4    1
    39    30    31    1
@<TRIPOS>MOLECULE
*****
 37 39 0 0 0
SMALL
GASTEIGER

@<TRIPOS>ATOM
      1 C         140.6539  140.6661  163.8960 C.2     1  UNL1        0.2418
      2 O         141.1200  141.7464  162.9656 O.2     1  UNL1       -0.2738
      3 N         140.0826  139.3945  163.3424 N.am    1  UNL1       -0.2832
      4 H         139.7766  138.6854  163.9530 H       1  UNL1        0.1549
      5 C         141.0743  141.4315  169.8321 C.ar    1  UNL1        0.0625
      6 C         142.3380  141.9746  170.4306 C.ar    1  UNL1        0.0452
      7 C         143.4965  142.3264  169.5451 C.ar    1  UNL1        0.1415
      8 F         144.7602  142.8695  170.1437 F       1  UNL1       -0.2041
      9 C         143.3914  142.1351  168.0611 C.ar    1  UNL1        0.0337
     10 C         142.1278  141.5920  167.4626 C.ar    1  UNL1        0.0492
     11 C         142.0226  141.4006  165.9786 C.2     1  UNL1        0.1296
     12 O         143.1812  141.7523  165.0931 O.2     1  UNL1       -0.5088
     13 C         140.7590  140.8575  165.3801 C.3     1  UNL1        0.2107
     14 C         139.6005  140.5057  166.2655 C.2     1  UNL1        0.2613
     15 O         138.3368  139.9626  165.6670 O.2     1  UNL1       -0.2720
     16 N         139.7056  140.6971  167.7495 N.am    1  UNL1       -0.1771
     17 C         140.9693  141.2402  168.3481 C.ar    1  UNL1        0.0891
     18 H         143.9705  142.0916  165.4670 H       1  UNL1        0.2917
     19 C         139.6729  139.6505  171.1025 C.3     1  UNL1        0.1086
     20 N         139.9158  141.0798  170.7176 N.pl3   1  UNL1       -0.3302
     21 H         139.3149  141.7870  171.0462 H       1  UNL1        0.1469
     22 C         139.9775  139.2031  161.8584 C.ar    1  UNL1        0.0503
     23 C         138.7475  139.6563  161.1290 C.ar    1  UNL1        0.0148
     24 C         138.6424  139.4650  159.6450 C.ar    1  UNL1        0.0058
     25 C         139.7672  138.8205  158.8903 C.ar    1  UNL1        0.0550
     26 C         140.9971  138.3673  159.6196 C.ar    1  UNL1        0.0058
     27 C         141.1022  138.5586  161.1037 C.ar    1  UNL1        0.0148
     28 C         139.6621  138.6292  157.4063 C.2     1  UNL1        0.2651
     29 O         139.7696  139.8106  156.4883 O.2     1  UNL1       -0.2685
     30 N         139.4494  137.2564  156.8402 N.am    1  UNL1       -0.1714
     31 H         139.3788  136.4810  157.4427 H       1  UNL1        0.1779
     32 S         139.3443  137.0651  155.3562 S.O2    1  UNL1        0.1154
     33 O         137.8638  137.2941  155.4316 O.2     1  UNL1       -0.1378
     34 O         140.8247  136.8361  155.2809 O.2     1  UNL1       -0.1378
     35 N         139.2391  136.8738  153.8722 N.3     1  UNL1       -0.1398
     36 C         140.3873  136.2831  153.1089 C.3     1  UNL1        0.1163
     37 C         137.9857  137.2732  153.1514 C.3     1  UNL1        0.1163
@<TRIPOS>BOND
     1    19    20    1
     2    20     5    1
     3     5     6   ar
     4     6     7   ar
     5     7     8    1
     6     7     9   ar
     7     9    10   ar
     8    10    11    2
     9    11    12    1
    10    11    13    1
    11    13     1    1
    12     1     2    2
    13     1     3   am
    14     3    22    1
    15    22    23   ar
    16    23    24   ar
    17    24    25   ar
    18    25    28    1
    19    28    29    2
    20    28    30   am
    21    30    32    1
    22    32    33    2
    23    32    34    2
    24    32    35    1
    25    35    36    1
    26    35    37    1
    27    25    26   ar
    28    26    27   ar
    29    13    14    1
    30    14    15    2
    31    14    16    1
    32    16    17    2
    33    17     5   ar
    34    17    10   ar
    35    27    22   ar
    36    20    21    1
    37    12    18    1
    38     3     4    1
    39    30    31    1
@<TRIPOS>MOLECULE
*****
 37 39 0 0 0
SMALL
GASTEIGER

@<TRIPOS>ATOM
      1 C         141.8895  143.7627  160.1446 C.2     1  UNL1        0.2418
      2 O         141.5920  142.3103  160.3726 O.2     1  UNL1       -0.2738
      3 N         142.3207  144.6288  161.2908 N.am    1  UNL1       -0.2832
      4 H         142.5160  145.5821  161.1413 H       1  UNL1        0.1549
      5 C         141.3544  146.1078  154.6479 C.ar    1  UNL1        0.0625
      6 C         140.3143  147.1541  154.3769 C.ar    1  UNL1        0.0452
      7 C         139.4080  147.6142  155.4800 C.ar    1  UNL1        0.1415
      8 F         138.3679  148.6606  155.2090 F       1  UNL1       -0.2041
      9 C         139.5418  147.0279  156.8542 C.ar    1  UNL1        0.0337
     10 C         140.5818  145.9816  157.1252 C.ar    1  UNL1        0.0492
     11 C         140.7156  145.3953  158.4994 C.2     1  UNL1        0.1296
     12 O         139.8093  145.8554  159.6026 O.2     1  UNL1       -0.5088
     13 C         141.7557  144.3490  158.7704 C.3     1  UNL1        0.2107
     14 C         142.6620  143.8890  157.6673 C.2     1  UNL1        0.2613
     15 O         143.7021  142.8426  157.9383 O.2     1  UNL1       -0.2720
     16 N         142.5282  144.4752  156.2931 N.am    1  UNL1       -0.1771
     17 C         141.4881  145.5216  156.0220 C.ar    1  UNL1        0.0891
     18 H         139.1596  146.5090  159.4333 H       1  UNL1        0.2917
     19 C         141.7519  144.6942  152.5046 C.3     1  UNL1        0.1086
     20 N         142.2607  145.6478  153.5447 N.pl3   1  UNL1       -0.3302
     21 H         143.1894  145.9717  153.5033 H       1  UNL1        0.1469
     22 C         142.4545  144.0425  162.6650 C.ar    1  UNL1        0.0503
     23 C         143.8040  143.6370  163.1793 C.ar    1  UNL1        0.0148
     24 C         143.9378  143.0507  164.5534 C.ar    1  UNL1        0.0058
     25 C         142.7221  142.8698  165.4133 C.ar    1  UNL1        0.0550
     26 C         141.3727  143.2753  164.8991 C.ar    1  UNL1        0.0058
     27 C         141.2388  143.8616  163.5249 C.ar    1  UNL1        0.0148
     28 C         142.8559  142.2835  166.7874 C.2     1  UNL1        0.2651
     29 O         143.8791  142.8287  167.7391 O.2     1  UNL1       -0.2685
     30 N         141.9665  141.1519  167.2099 N.am    1  UNL1       -0.1714
     31 H         141.2949  140.7940  166.5853 H       1  UNL1        0.1779
     32 S         142.1002  140.5656  168.5840 S.O2    1  UNL1        0.1154
     33 O         141.1213  141.5733  169.1094 O.2     1  UNL1       -0.1378
     34 O         143.0792  139.5578  168.0587 O.2     1  UNL1       -0.1378
     35 N         142.2340  139.9792  169.9583 N.3     1  UNL1       -0.1398
     36 C         142.6924  138.5610  170.1272 C.3     1  UNL1        0.1163
     37 C         141.9094  140.8111  171.1635 C.3     1  UNL1        0.1163
@<TRIPOS>BOND
     1    19    20    1
     2    20     5    1
     3     5     6   ar
     4     6     7   ar
     5     7     8    1
     6     7     9   ar
     7     9    10   ar
     8    10    11    2
     9    11    12    1
    10    11    13    1
    11    13     1    1
    12     1     2    2
    13     1     3   am
    14     3    22    1
    15    22    23   ar
    16    23    24   ar
    17    24    25   ar
    18    25    28    1
    19    28    29    2
    20    28    30   am
    21    30    32    1
    22    32    33    2
    23    32    34    2
    24    32    35    1
    25    35    36    1
    26    35    37    1
    27    25    26   ar
    28    26    27   ar
    29    13    14    1
    30    14    15    2
    31    14    16    1
    32    16    17    2
    33    17     5   ar
    34    17    10   ar
    35    27    22   ar
    36    20    21    1
    37    12    18    1
    38     3     4    1
    39    30    31    1
@<TRIPOS>MOLECULE
*****
 37 39 0 0 0
SMALL
GASTEIGER

@<TRIPOS>ATOM
      1 C         143.6459  141.2953  163.3027 C.2     1  UNL1        0.2418
      2 O         145.1058  140.9828  163.1579 O.2     1  UNL1       -0.2738
      3 N         142.8147  141.5759  162.0861 N.am    1  UNL1       -0.2832
      4 H         141.8565  141.7810  162.1811 H       1  UNL1        0.1549
      5 C         141.1311  141.4233  168.7488 C.ar    1  UNL1        0.0625
      6 C         141.3900  140.3106  169.7208 C.ar    1  UNL1        0.0452
      7 C         142.2776  139.1658  169.3312 C.ar    1  UNL1        0.1415
      8 F         142.5364  138.0530  170.3033 F       1  UNL1       -0.2041
      9 C         142.9063  139.1338  167.9698 C.ar    1  UNL1        0.0337
     10 C         142.6474  140.2465  166.9978 C.ar    1  UNL1        0.0492
     11 C         143.2761  140.2146  165.6362 C.2     1  UNL1        0.1296
     12 O         144.1637  139.0698  165.2467 O.2     1  UNL1       -0.5088
     13 C         143.0172  141.3273  164.6643 C.3     1  UNL1        0.2107
     14 C         142.1296  142.4721  165.0538 C.2     1  UNL1        0.2613
     15 O         141.8707  143.5848  164.0818 O.2     1  UNL1       -0.2720
     16 N         141.5009  142.5041  166.4153 N.am    1  UNL1       -0.1771
     17 C         141.7598  141.3913  167.3873 C.ar    1  UNL1        0.0891
     18 H         144.3254  138.3747  165.8539 H       1  UNL1        0.2917
     19 C         139.8590  142.7639  170.5749 C.3     1  UNL1        0.1086
     20 N         140.2435  142.5681  169.1383 N.pl3   1  UNL1       -0.3302
     21 H         139.9133  143.1909  168.4511 H       1  UNL1        0.1469
     22 C         143.4435  141.5439  160.7246 C.ar    1  UNL1        0.0503
     23 C         144.2016  142.7360  160.2204 C.ar    1  UNL1        0.0148
     24 C         144.8303  142.7041  158.8589 C.ar    1  UNL1        0.0058
     25 C         144.7010  141.4800  158.0016 C.ar    1  UNL1        0.0550
     26 C         143.9429  140.2879  158.5058 C.ar    1  UNL1        0.0058
     27 C         143.3141  140.3199  159.8673 C.ar    1  UNL1        0.0148
     28 C         145.3297  141.4480  156.6401 C.2     1  UNL1        0.2651
     29 O         145.1108  140.2679  155.7404 O.2     1  UNL1       -0.2685
     30 N         146.1774  142.5962  156.1783 N.am    1  UNL1       -0.1714
     31 H         146.3211  143.3707  156.7688 H       1  UNL1        0.1779
     32 S         146.8061  142.5642  154.8168 S.O2    1  UNL1        0.1154
     33 O         148.0156  141.8882  155.3913 O.2     1  UNL1       -0.1378
     34 O         145.5966  143.2402  154.2424 O.2     1  UNL1       -0.1378
     35 N         147.4349  142.5322  153.4553 N.3     1  UNL1       -0.1398
     36 C         147.0976  141.4267  152.4992 C.3     1  UNL1        0.1163
     37 C         148.4010  143.6057  153.0499 C.3     1  UNL1        0.1163
@<TRIPOS>BOND
     1    19    20    1
     2    20     5    1
     3     5     6   ar
     4     6     7   ar
     5     7     8    1
     6     7     9   ar
     7     9    10   ar
     8    10    11    2
     9    11    12    1
    10    11    13    1
    11    13     1    1
    12     1     2    2
    13     1     3   am
    14     3    22    1
    15    22    23   ar
    16    23    24   ar
    17    24    25   ar
    18    25    28    1
    19    28    29    2
    20    28    30   am
    21    30    32    1
    22    32    33    2
    23    32    34    2
    24    32    35    1
    25    35    36    1
    26    35    37    1
    27    25    26   ar
    28    26    27   ar
    29    13    14    1
    30    14    15    2
    31    14    16    1
    32    16    17    2
    33    17     5   ar
    34    17    10   ar
    35    27    22   ar
    36    20    21    1
    37    12    18    1
    38     3     4    1
    39    30    31    1
@<TRIPOS>MOLECULE
*****
 37 39 0 0 0
SMALL
GASTEIGER

@<TRIPOS>ATOM
      1 C         140.2542  141.2484  163.8908 C.2     1  UNL1        0.2418
      2 O         141.3202  140.8028  162.9343 O.2     1  UNL1       -0.2738
      3 N         138.8812  141.5766  163.3839 N.am    1  UNL1       -0.2832
      4 H         138.1815  141.8690  164.0117 H       1  UNL1        0.1549
      5 C         141.4824  141.7180  169.7450 C.ar    1  UNL1        0.0625
      6 C         142.1422  140.5805  170.4665 C.ar    1  UNL1        0.0452
      7 C         142.4949  139.3255  169.7245 C.ar    1  UNL1        0.1415
      8 F         143.1547  138.1879  170.4461 F       1  UNL1       -0.2041
      9 C         142.1879  139.2080  168.2610 C.ar    1  UNL1        0.0337
     10 C         141.5281  140.3456  167.5395 C.ar    1  UNL1        0.0492
     11 C         141.2210  140.2282  166.0759 C.2     1  UNL1        0.1296
     12 O         141.5738  138.9732  165.3339 O.2     1  UNL1       -0.5088
     13 C         140.5613  141.3658  165.3544 C.3     1  UNL1        0.2107
     14 C         140.2085  142.6208  166.0964 C.2     1  UNL1        0.2613
     15 O         139.5488  143.7584  165.3748 O.2     1  UNL1       -0.2720
     16 N         140.5156  142.7382  167.5599 N.am    1  UNL1       -0.1771
     17 C         141.1754  141.6006  168.2815 C.ar    1  UNL1        0.0891
     18 H         141.9859  138.2626  165.7847 H       1  UNL1        0.2917
     19 C         139.7089  143.2297  170.8937 C.3     1  UNL1        0.1086
     20 N         141.1297  142.9730  170.4870 N.pl3   1  UNL1       -0.3302
     21 H         141.8307  143.6283  170.7071 H       1  UNL1        0.1469
     22 C         138.5742  141.4592  161.9204 C.ar    1  UNL1        0.0503
     23 C         138.8423  142.6151  161.0027 C.ar    1  UNL1        0.0148
     24 C         138.5353  142.4977  159.5392 C.ar    1  UNL1        0.0058
     25 C         137.9602  141.2244  158.9933 C.ar    1  UNL1        0.0550
     26 C         137.6921  140.0685  159.9109 C.ar    1  UNL1        0.0058
     27 C         137.9991  140.1859  161.3745 C.ar    1  UNL1        0.0148
     28 C         137.6532  141.1070  157.5298 C.2     1  UNL1        0.2651
     29 O         138.1010  139.8973  156.7642 O.2     1  UNL1       -0.2685
     30 N         136.8984  142.1994  156.8317 N.am    1  UNL1       -0.1714
     31 H         136.6045  142.9934  157.3342 H       1  UNL1        0.1779
     32 S         136.5914  142.0820  155.3682 S.O2    1  UNL1        0.1154
     33 O         135.3038  141.3850  155.6942 O.2     1  UNL1       -0.1378
     34 O         137.8790  142.7789  155.0422 O.2     1  UNL1       -0.1378
     35 N         136.2844  141.9645  153.9046 N.3     1  UNL1       -0.1398
     36 C         136.2702  143.1906  153.0406 C.3     1  UNL1        0.1163
     37 C         135.9916  140.6211  153.3052 C.3     1  UNL1        0.1163
@<TRIPOS>BOND
     1    19    20    1
     2    20     5    1
     3     5     6   ar
     4     6     7   ar
     5     7     8    1
     6     7     9   ar
     7     9    10   ar
     8    10    11    2
     9    11    12    1
    10    11    13    1
    11    13     1    1
    12     1     2    2
    13     1     3   am
    14     3    22    1
    15    22    23   ar
    16    23    24   ar
    17    24    25   ar
    18    25    28    1
    19    28    29    2
    20    28    30   am
    21    30    32    1
    22    32    33    2
    23    32    34    2
    24    32    35    1
    25    35    36    1
    26    35    37    1
    27    25    26   ar
    28    26    27   ar
    29    13    14    1
    30    14    15    2
    31    14    16    1
    32    16    17    2
    33    17     5   ar
    34    17    10   ar
    35    27    22   ar
    36    20    21    1
    37    12    18    1
    38     3     4    1
    39    30    31    1
@<TRIPOS>MOLECULE
*****
 37 39 0 0 0
SMALL
GASTEIGER

@<TRIPOS>ATOM
      1 C         143.1115  140.7792  163.0827 C.2     1  UNL1        0.2418
      2 O         144.5177  140.2614  163.0164 O.2     1  UNL1       -0.2738
      3 N         142.4617  141.3444  161.8547 N.am    1  UNL1       -0.2832
      4 H         141.5387  141.6843  161.8982 H       1  UNL1        0.1549
      5 C         140.0859  140.5893  168.2606 C.ar    1  UNL1        0.0625
      6 C         138.8234  139.7857  168.3625 C.ar    1  UNL1        0.0452
      7 C         138.3174  139.0295  167.1700 C.ar    1  UNL1        0.1415
      8 F         137.0549  138.2259  167.2719 F       1  UNL1       -0.2041
      9 C         139.0737  139.0770  165.8755 C.ar    1  UNL1        0.0337
     10 C         140.3362  139.8806  165.7736 C.ar    1  UNL1        0.0492
     11 C         141.0926  139.9281  164.4791 C.2     1  UNL1        0.1296
     12 O         140.5865  139.1719  163.2866 O.2     1  UNL1       -0.5088
     13 C         142.3550  140.7317  164.3772 C.3     1  UNL1        0.2107
     14 C         142.8611  141.4878  165.5698 C.2     1  UNL1        0.2613
     15 O         144.1236  142.2914  165.4678 O.2     1  UNL1       -0.2720
     16 N         142.1048  141.4404  166.8642 N.am    1  UNL1       -0.1771
     17 C         140.8422  140.6367  166.9662 C.ar    1  UNL1        0.0891
     18 H         139.7979  138.6699  163.3503 H       1  UNL1        0.2917
     19 C         140.2887  142.8072  169.5983 C.3     1  UNL1        0.1086
     20 N         140.5920  141.3454  169.4531 N.pl3   1  UNL1       -0.3302
     21 H         141.1232  140.8822  170.1405 H       1  UNL1        0.1469
     22 C         143.2181  141.3919  160.5603 C.ar    1  UNL1        0.0503
     23 C         144.1154  142.5554  160.2582 C.ar    1  UNL1        0.0148
     24 C         144.8718  142.6028  158.9638 C.ar    1  UNL1        0.0058
     25 C         144.7310  141.4869  157.9714 C.ar    1  UNL1        0.0550
     26 C         143.8338  140.3234  158.2735 C.ar    1  UNL1        0.0058
     27 C         143.0773  140.2759  159.5679 C.ar    1  UNL1        0.0148
     28 C         145.4875  141.5343  156.6770 C.2     1  UNL1        0.2651
     29 O         145.4085  140.3824  155.7195 O.2     1  UNL1       -0.2685
     30 N         146.3229  142.7338  156.3401 N.am    1  UNL1       -0.1714
     31 H         146.3748  143.4898  156.9686 H       1  UNL1        0.1779
     32 S         147.0794  142.7812  155.0457 S.O2    1  UNL1        0.1154
     33 O         145.9088  143.4480  154.3861 O.2     1  UNL1       -0.1378
     34 O         148.2499  142.1144  155.7053 O.2     1  UNL1       -0.1378
     35 N         147.8358  142.8287  153.7512 N.3     1  UNL1       -0.1398
     36 C         148.1829  141.5554  153.0382 C.3     1  UNL1        0.1163
     37 C         148.2452  144.1494  153.1698 C.3     1  UNL1        0.1163
@<TRIPOS>BOND
     1    19    20    1
     2    20     5    1
     3     5     6   ar
     4     6     7   ar
     5     7     8    1
     6     7     9   ar
     7     9    10   ar
     8    10    11    2
     9    11    12    1
    10    11    13    1
    11    13     1    1
    12     1     2    2
    13     1     3   am
    14     3    22    1
    15    22    23   ar
    16    23    24   ar
    17    24    25   ar
    18    25    28    1
    19    28    29    2
    20    28    30   am
    21    30    32    1
    22    32    33    2
    23    32    34    2
    24    32    35    1
    25    35    36    1
    26    35    37    1
    27    25    26   ar
    28    26    27   ar
    29    13    14    1
    30    14    15    2
    31    14    16    1
    32    16    17    2
    33    17     5   ar
    34    17    10   ar
    35    27    22   ar
    36    20    21    1
    37    12    18    1
    38     3     4    1
    39    30    31    1
