@<TRIPOS>MOLECULE
*****
 49 55 0 0 0
SMALL
GASTEIGER

@<TRIPOS>ATOM
      1 N         142.5294  140.1593  158.6262 N.3     1  UNL1       -0.2726
      2 C         141.1598  139.6629  158.9834 C.3     1  UNL1        0.0738
      3 C         140.9812  138.7181  160.1348 C.3     1  UNL1        0.0369
      4 C         142.1722  138.2699  160.9289 C.3     1  UNL1        0.0745
      5 C         143.5419  138.7663  160.5715 C.3     1  UNL1        0.0369
      6 C         143.7205  139.7110  159.4202 C.3     1  UNL1        0.0738
      7 N         141.9937  137.3252  162.0802 N.pl3   1  UNL1       -0.3058
      8 H         142.3743  136.4183  162.0364 H       1  UNL1        0.1495
      9 C         141.2351  137.7622  163.2983 C.ar    1  UNL1        0.1981
     10 N         139.7819  137.5084  163.5700 N.ar    1  UNL1       -0.2138
     11 C         139.4452  138.1191  164.8982 C.ar    1  UNL1        0.0999
     12 C         138.1658  138.1820  165.6786 C.ar    1  UNL1        0.0207
     13 C         138.1314  138.8760  167.0079 C.ar    1  UNL1        0.0016
     14 C         139.3765  139.5071  167.5569 C.ar    1  UNL1        0.0016
     15 C         140.6560  139.4442  166.7765 C.ar    1  UNL1        0.0188
     16 C         140.6904  138.7502  165.4472 C.ar    1  UNL1        0.0801
     17 N         141.7966  138.5296  164.4584 N.ar    1  UNL1       -0.2956
     18 C         143.2151  138.9948  164.6040 C.3     1  UNL1        0.1354
     19 C         143.6418  140.3008  164.0020 C.ar    1  UNL1        0.0006
     20 C         142.6507  141.1397  163.2511 C.ar    1  UNL1       -0.0001
     21 C         143.0772  142.4457  162.6490 C.ar    1  UNL1        0.0294
     22 C         144.4948  142.9128  162.7979 C.ar    1  UNL1        0.1401
     23 F         144.9214  144.2188  162.1958 F       1  UNL1       -0.2042
     24 C         145.4859  142.0738  163.5488 C.ar    1  UNL1        0.0294
     25 C         145.0594  140.7678  164.1509 C.ar    1  UNL1       -0.0001
     26 C         142.7080  141.1040  157.4748 C.3     1  UNL1        0.0722
     27 C         142.1199  142.4825  157.5376 C.3     1  UNL1        0.0191
     28 C         140.7673  142.7485  156.9463 C.3     1  UNL1        0.0234
     29 C         139.7747  143.5896  157.6928 C.3     1  UNL1        0.1016
     30 C         139.7667  143.8352  164.5623 C.ar    1  UNL1        0.0503
     31 C         140.6054  144.9600  164.0318 C.ar    1  UNL1        0.0148
     32 C         140.7747  145.1358  162.5517 C.ar    1  UNL1        0.0058
     33 C         140.1054  144.1869  161.6023 C.ar    1  UNL1        0.0542
     34 C         139.2667  143.0620  162.1329 C.ar    1  UNL1        0.0100
     35 C         138.5974  142.1131  161.1834 C.ar    1  UNL1        0.0542
     36 C         137.7587  140.9883  161.7140 C.ar    1  UNL1        0.0045
     37 C         137.5894  140.8125  163.1939 C.ar    1  UNL1        0.0002
     38 C         138.2588  141.7614  164.1434 C.ar    1  UNL1        0.0012
     39 C         139.0974  142.8862  163.6129 C.ar    1  UNL1        0.0138
     40 C         138.7667  142.2889  159.7034 C.2     1  UNL1        0.2550
     41 O         138.0974  141.3400  158.7539 O.2     1  UNL1       -0.2695
     42 N         139.6053  143.4137  159.1728 N.am    1  UNL1       -0.2229
     43 C         140.2747  144.3627  160.1223 C.2     1  UNL1        0.2550
     44 O         141.1134  145.4875  159.5917 O.2     1  UNL1       -0.2695
     45 C         140.5266  142.8643  168.3346 C.3     1  UNL1        0.0949
     46 C         140.6960  143.0401  166.8545 C.2     1  UNL1        0.2266
     47 O         141.9638  142.5967  166.1868 O.2     1  UNL1       -0.2748
     48 N         139.5974  143.6594  166.0423 N.am    1  UNL1       -0.2839
     49 H         138.7653  143.9504  166.4806 H       1  UNL1        0.1549
@<TRIPOS>BOND
     1    45    46    1
     2    46    47    2
     3    46    48   am
     4    48    30    1
     5    30    31   ar
     6    31    32   ar
     7    32    33   ar
     8    33    34   ar
     9    34    35   ar
    10    35    36   ar
    11    36    37   ar
    12    37    38   ar
    13    38    39   ar
    14    35    40    1
    15    40    41    2
    16    40    42   am
    17    42    29    1
    18    29    28    1
    19    28    27    1
    20    27    26    1
    21    26     1    1
    22     1     2    1
    23     2     3    1
    24     3     4    1
    25     4     7    1
    26     7     9    1
    27     9    10   ar
    28    10    11   ar
    29    11    12   ar
    30    12    13   ar
    31    13    14   ar
    32    14    15   ar
    33    15    16   ar
    34    16    17   ar
    35    17    18    1
    36    18    19    1
    37    19    20   ar
    38    20    21   ar
    39    21    22   ar
    40    22    23    1
    41    22    24   ar
    42    24    25   ar
    43     4     5    1
    44     5     6    1
    45    42    43   am
    46    43    44    2
    47    39    30   ar
    48     6     1    1
    49    43    33    1
    50    39    34   ar
    51    17     9   ar
    52    25    19   ar
    53    16    11   ar
    54    48    49    1
    55     7     8    1
@<TRIPOS>MOLECULE
*****
 49 55 0 0 0
SMALL
GASTEIGER

@<TRIPOS>ATOM
      1 N         141.0567  142.1167  157.4720 N.3     1  UNL1       -0.2726
      2 C         139.8854  142.9490  157.9026 C.3     1  UNL1        0.0738
      3 C         138.7659  142.3228  158.6803 C.3     1  UNL1        0.0369
      4 C         138.8177  140.8644  159.0272 C.3     1  UNL1        0.0745
      5 C         139.9890  140.0322  158.5965 C.3     1  UNL1        0.0369
      6 C         141.1085  140.6583  157.8189 C.3     1  UNL1        0.0738
      7 N         137.6983  140.2382  159.8048 N.pl3   1  UNL1       -0.3058
      8 H         136.8074  140.1445  159.3963 H       1  UNL1        0.1495
      9 C         137.9361  139.7548  161.2047 C.ar    1  UNL1        0.1981
     10 N         138.2351  138.3420  161.6107 N.ar    1  UNL1       -0.2138
     11 C         138.4005  138.3132  163.1013 C.ar    1  UNL1        0.0999
     12 C         138.7048  137.1971  164.0560 C.ar    1  UNL1        0.0207
     13 C         138.8125  137.4759  165.5260 C.ar    1  UNL1        0.0016
     14 C         138.6158  138.8708  166.0412 C.ar    1  UNL1        0.0016
     15 C         138.3114  139.9870  165.0864 C.ar    1  UNL1        0.0188
     16 C         138.2038  139.7082  163.6165 C.ar    1  UNL1        0.0801
     17 N         137.9168  140.5991  162.4443 N.ar    1  UNL1       -0.2956
     18 C         137.6562  142.0752  162.5017 C.3     1  UNL1        0.1354
     19 C         138.7573  143.0166  162.8906 C.ar    1  UNL1        0.0006
     20 C         138.8446  143.5279  164.2981 C.ar    1  UNL1       -0.0001
     21 C         139.9457  144.4694  164.6871 C.ar    1  UNL1        0.0294
     22 C         140.9595  144.8995  163.6687 C.ar    1  UNL1        0.1401
     23 F         142.0605  145.8410  164.0577 F       1  UNL1       -0.2042
     24 C         140.8722  144.3882  162.2612 C.ar    1  UNL1        0.0294
     25 C         139.7711  143.4468  161.8722 C.ar    1  UNL1       -0.0001
     26 C         142.1761  142.7429  156.6944 C.3     1  UNL1        0.0722
     27 C         143.4525  143.1183  157.3874 C.3     1  UNL1        0.0191
     28 C         143.4811  143.2625  158.8801 C.3     1  UNL1        0.0234
     29 C         144.4494  142.4554  159.6931 C.3     1  UNL1        0.1016
     30 C         142.8428  141.0660  166.2306 C.ar    1  UNL1        0.0503
     31 C         143.3326  142.4805  166.1353 C.ar    1  UNL1        0.0148
     32 C         143.7520  143.0413  164.8088 C.ar    1  UNL1        0.0058
     33 C         143.6814  142.1876  163.5775 C.ar    1  UNL1        0.0542
     34 C         143.1915  140.7730  163.6727 C.ar    1  UNL1        0.0100
     35 C         143.1209  139.9192  162.4414 C.ar    1  UNL1        0.0542
     36 C         142.6311  138.5047  162.5366 C.ar    1  UNL1        0.0045
     37 C         142.2118  137.9439  163.8631 C.ar    1  UNL1        0.0002
     38 C         142.2823  138.7977  165.0945 C.ar    1  UNL1        0.0012
     39 C         142.7722  140.2122  164.9992 C.ar    1  UNL1        0.0138
     40 C         143.5402  140.4801  161.1149 C.2     1  UNL1        0.2550
     41 O         143.4697  139.6263  159.8835 O.2     1  UNL1       -0.2695
     42 N         144.0301  141.8946  161.0196 N.am    1  UNL1       -0.2229
     43 C         144.1007  142.7484  162.2510 C.2     1  UNL1        0.2550
     44 O         144.5906  144.1630  162.1557 O.2     1  UNL1       -0.2695
     45 C         140.6660  140.3013  169.4597 C.3     1  UNL1        0.0949
     46 C         141.0853  140.8622  168.1331 C.2     1  UNL1        0.2266
     47 O         140.1663  141.7799  167.3825 O.2     1  UNL1       -0.2748
     48 N         142.4235  140.5052  167.5571 N.am    1  UNL1       -0.2839
     49 H         143.0266  139.9029  168.0497 H       1  UNL1        0.1549
@<TRIPOS>BOND
     1    45    46    1
     2    46    47    2
     3    46    48   am
     4    48    30    1
     5    30    31   ar
     6    31    32   ar
     7    32    33   ar
     8    33    34   ar
     9    34    35   ar
    10    35    36   ar
    11    36    37   ar
    12    37    38   ar
    13    38    39   ar
    14    35    40    1
    15    40    41    2
    16    40    42   am
    17    42    29    1
    18    29    28    1
    19    28    27    1
    20    27    26    1
    21    26     1    1
    22     1     2    1
    23     2     3    1
    24     3     4    1
    25     4     7    1
    26     7     9    1
    27     9    10   ar
    28    10    11   ar
    29    11    12   ar
    30    12    13   ar
    31    13    14   ar
    32    14    15   ar
    33    15    16   ar
    34    16    17   ar
    35    17    18    1
    36    18    19    1
    37    19    20   ar
    38    20    21   ar
    39    21    22   ar
    40    22    23    1
    41    22    24   ar
    42    24    25   ar
    43     4     5    1
    44     5     6    1
    45    42    43   am
    46    43    44    2
    47    39    30   ar
    48     6     1    1
    49    43    33    1
    50    39    34   ar
    51    17     9   ar
    52    25    19   ar
    53    16    11   ar
    54    48    49    1
    55     7     8    1
@<TRIPOS>MOLECULE
*****
 49 55 0 0 0
SMALL
GASTEIGER

@<TRIPOS>ATOM
      1 N         142.7719  141.5586  156.9308 N.3     1  UNL1       -0.2726
      2 C         141.3376  141.9803  157.0529 C.3     1  UNL1        0.0738
      3 C         140.9703  143.1474  157.9207 C.3     1  UNL1        0.0369
      4 C         142.0373  143.8928  158.6662 C.3     1  UNL1        0.0745
      5 C         143.4717  143.4711  158.5441 C.3     1  UNL1        0.0369
      6 C         143.8389  142.3040  157.6764 C.3     1  UNL1        0.0738
      7 N         141.6700  145.0599  159.5339 N.pl3   1  UNL1       -0.3058
      8 H         141.9113  145.9736  159.2580 H       1  UNL1        0.1495
      9 C         140.9351  144.8349  160.8221 C.ar    1  UNL1        0.1981
     10 N         139.4465  144.8648  161.0047 N.ar    1  UNL1       -0.2138
     11 C         139.1511  144.5888  162.4492 C.ar    1  UNL1        0.0999
     12 C         137.8617  144.4942  163.2097 C.ar    1  UNL1        0.0207
     13 C         137.8782  144.1991  164.6803 C.ar    1  UNL1        0.0016
     14 C         139.1841  143.9986  165.3904 C.ar    1  UNL1        0.0016
     15 C         140.4736  144.0933  164.6299 C.ar    1  UNL1        0.0188
     16 C         140.4571  144.3884  163.1593 C.ar    1  UNL1        0.0801
     17 N         141.5596  144.5404  162.1537 N.ar    1  UNL1       -0.2956
     18 C         143.0288  144.4193  162.4310 C.3     1  UNL1        0.1354
     19 C         143.6087  143.0974  162.8386 C.ar    1  UNL1        0.0006
     20 C         143.7773  142.0070  161.8224 C.ar    1  UNL1       -0.0001
     21 C         144.3571  140.6850  162.2300 C.ar    1  UNL1        0.0294
     22 C         144.7683  140.4534  163.6538 C.ar    1  UNL1        0.1401
     23 F         145.3482  139.1314  164.0614 F       1  UNL1       -0.2042
     24 C         144.5997  141.5437  164.6700 C.ar    1  UNL1        0.0294
     25 C         144.0199  142.8657  164.2624 C.ar    1  UNL1       -0.0001
     26 C         143.1392  140.3915  156.0631 C.3     1  UNL1        0.0722
     27 C         143.0383  138.9952  156.6019 C.3     1  UNL1        0.0191
     28 C         142.7861  138.7717  158.0635 C.3     1  UNL1        0.0234
     29 C         141.4351  138.3171  158.5306 C.3     1  UNL1        0.1016
     30 C         140.3493  139.2100  165.2592 C.ar    1  UNL1        0.0503
     31 C         141.6036  138.4104  165.0661 C.ar    1  UNL1        0.0148
     32 C         142.0717  138.0718  163.6818 C.ar    1  UNL1        0.0058
     33 C         141.2854  138.5330  162.4905 C.ar    1  UNL1        0.0542
     34 C         140.0310  139.3326  162.6836 C.ar    1  UNL1        0.0100
     35 C         139.2447  139.7937  161.4924 C.ar    1  UNL1        0.0542
     36 C         137.9904  140.5933  161.6854 C.ar    1  UNL1        0.0045
     37 C         137.5224  140.9318  163.0697 C.ar    1  UNL1        0.0002
     38 C         138.3087  140.4707  164.2610 C.ar    1  UNL1        0.0012
     39 C         139.5630  139.6711  164.0679 C.ar    1  UNL1        0.0138
     40 C         139.7128  139.4552  160.1080 C.2     1  UNL1        0.2550
     41 O         138.9265  139.9164  158.9167 O.2     1  UNL1       -0.2695
     42 N         140.9671  138.6556  159.9149 N.am    1  UNL1       -0.2229
     43 C         141.7534  138.1945  161.1062 C.2     1  UNL1        0.2550
     44 O         143.0078  137.3949  160.9131 O.2     1  UNL1       -0.2695
     45 C         140.0100  141.0541  168.7569 C.3     1  UNL1        0.0949
     46 C         140.4781  140.7157  167.3725 C.2     1  UNL1        0.2266
     47 O         141.5428  141.5445  166.7172 O.2     1  UNL1       -0.2748
     48 N         139.8813  139.5484  166.6435 N.am    1  UNL1       -0.2839
     49 H         139.1825  139.0045  167.0736 H       1  UNL1        0.1549
@<TRIPOS>BOND
     1    45    46    1
     2    46    47    2
     3    46    48   am
     4    48    30    1
     5    30    31   ar
     6    31    32   ar
     7    32    33   ar
     8    33    34   ar
     9    34    35   ar
    10    35    36   ar
    11    36    37   ar
    12    37    38   ar
    13    38    39   ar
    14    35    40    1
    15    40    41    2
    16    40    42   am
    17    42    29    1
    18    29    28    1
    19    28    27    1
    20    27    26    1
    21    26     1    1
    22     1     2    1
    23     2     3    1
    24     3     4    1
    25     4     7    1
    26     7     9    1
    27     9    10   ar
    28    10    11   ar
    29    11    12   ar
    30    12    13   ar
    31    13    14   ar
    32    14    15   ar
    33    15    16   ar
    34    16    17   ar
    35    17    18    1
    36    18    19    1
    37    19    20   ar
    38    20    21   ar
    39    21    22   ar
    40    22    23    1
    41    22    24   ar
    42    24    25   ar
    43     4     5    1
    44     5     6    1
    45    42    43   am
    46    43    44    2
    47    39    30   ar
    48     6     1    1
    49    43    33    1
    50    39    34   ar
    51    17     9   ar
    52    25    19   ar
    53    16    11   ar
    54    48    49    1
    55     7     8    1
@<TRIPOS>MOLECULE
*****
 49 55 0 0 0
SMALL
GASTEIGER

@<TRIPOS>ATOM
      1 N         142.6849  141.6938  157.0064 N.3     1  UNL1       -0.2726
      2 C         142.7753  141.4853  158.4890 C.3     1  UNL1        0.0738
      3 C         142.5078  142.6268  159.4247 C.3     1  UNL1        0.0369
      4 C         142.1498  143.9768  158.8777 C.3     1  UNL1        0.0745
      5 C         142.0593  144.1853  157.3949 C.3     1  UNL1        0.0369
      6 C         142.3269  143.0439  156.4593 C.3     1  UNL1        0.0738
      7 N         141.8822  145.1183  159.8133 N.pl3   1  UNL1       -0.3058
      8 H         142.2617  146.0073  159.6264 H       1  UNL1        0.1495
      9 C         141.0364  144.9053  161.0337 C.ar    1  UNL1        0.1981
     10 N         139.5396  144.8115  161.0636 N.ar    1  UNL1       -0.2138
     11 C         139.1170  144.5970  162.4868 C.ar    1  UNL1        0.0999
     12 C         137.7667  144.4320  163.1189 C.ar    1  UNL1        0.0207
     13 C         137.6520  144.2281  164.6005 C.ar    1  UNL1        0.0016
     14 C         138.8876  144.1893  165.4501 C.ar    1  UNL1        0.0016
     15 C         140.2379  144.3544  164.8181 C.ar    1  UNL1        0.0188
     16 C         140.3526  144.5582  163.3364 C.ar    1  UNL1        0.0801
     17 N         141.5388  144.7488  162.4383 N.ar    1  UNL1       -0.2956
     18 C         142.9753  144.7777  162.8692 C.3     1  UNL1        0.1354
     19 C         143.6602  143.5086  163.2822 C.ar    1  UNL1        0.0006
     20 C         143.3998  142.9231  164.6384 C.ar    1  UNL1       -0.0001
     21 C         144.0846  141.6540  165.0515 C.ar    1  UNL1        0.0294
     22 C         145.0298  140.9706  164.1084 C.ar    1  UNL1        0.1401
     23 F         145.7146  139.7016  164.5214 F       1  UNL1       -0.2042
     24 C         145.2901  141.5561  162.7521 C.ar    1  UNL1        0.0294
     25 C         144.6053  142.8252  162.3391 C.ar    1  UNL1       -0.0001
     26 C         142.9524  140.5524  156.0708 C.3     1  UNL1        0.0722
     27 C         141.8445  139.6119  155.6988 C.3     1  UNL1        0.0191
     28 C         140.4815  139.7832  156.3010 C.3     1  UNL1        0.0234
     29 C         139.9479  138.7549  157.2537 C.3     1  UNL1        0.1016
     30 C         139.1964  140.3482  163.8981 C.ar    1  UNL1        0.0503
     31 C         137.9803  140.7988  163.1445 C.ar    1  UNL1        0.0148
     32 C         137.8873  140.5702  161.6649 C.ar    1  UNL1        0.0058
     33 C         139.0105  139.8911  160.9389 C.ar    1  UNL1        0.0542
     34 C         140.2268  139.4405  161.6925 C.ar    1  UNL1        0.0100
     35 C         141.3500  138.7614  160.9665 C.ar    1  UNL1        0.0542
     36 C         142.5662  138.3108  161.7201 C.ar    1  UNL1        0.0045
     37 C         142.6591  138.5394  163.1996 C.ar    1  UNL1        0.0002
     38 C         141.5359  139.2185  163.9256 C.ar    1  UNL1        0.0012
     39 C         140.3197  139.6691  163.1721 C.ar    1  UNL1        0.0138
     40 C         141.2571  138.5328  159.4869 C.2     1  UNL1        0.2550
     41 O         142.3803  137.8537  158.7609 O.2     1  UNL1       -0.2695
     42 N         140.0409  138.9834  158.7334 N.am    1  UNL1       -0.2229
     43 C         138.9176  139.6625  159.4594 C.2     1  UNL1        0.2550
     44 O         137.7014  140.1131  158.7058 O.2     1  UNL1       -0.2695
     45 C         139.0074  139.7095  167.8104 C.3     1  UNL1        0.0949
     46 C         138.9144  139.4809  166.3308 C.2     1  UNL1        0.2266
     47 O         138.4466  138.1565  165.8045 O.2     1  UNL1       -0.2748
     48 N         139.2893  140.5767  165.3776 N.am    1  UNL1       -0.2839
     49 H         139.5964  141.4460  165.7231 H       1  UNL1        0.1549
@<TRIPOS>BOND
     1    45    46    1
     2    46    47    2
     3    46    48   am
     4    48    30    1
     5    30    31   ar
     6    31    32   ar
     7    32    33   ar
     8    33    34   ar
     9    34    35   ar
    10    35    36   ar
    11    36    37   ar
    12    37    38   ar
    13    38    39   ar
    14    35    40    1
    15    40    41    2
    16    40    42   am
    17    42    29    1
    18    29    28    1
    19    28    27    1
    20    27    26    1
    21    26     1    1
    22     1     2    1
    23     2     3    1
    24     3     4    1
    25     4     7    1
    26     7     9    1
    27     9    10   ar
    28    10    11   ar
    29    11    12   ar
    30    12    13   ar
    31    13    14   ar
    32    14    15   ar
    33    15    16   ar
    34    16    17   ar
    35    17    18    1
    36    18    19    1
    37    19    20   ar
    38    20    21   ar
    39    21    22   ar
    40    22    23    1
    41    22    24   ar
    42    24    25   ar
    43     4     5    1
    44     5     6    1
    45    42    43   am
    46    43    44    2
    47    39    30   ar
    48     6     1    1
    49    43    33    1
    50    39    34   ar
    51    17     9   ar
    52    25    19   ar
    53    16    11   ar
    54    48    49    1
    55     7     8    1
@<TRIPOS>MOLECULE
*****
 49 55 0 0 0
SMALL
GASTEIGER

@<TRIPOS>ATOM
      1 N         141.9670  138.6545  158.6347 N.3     1  UNL1       -0.2726
      2 C         142.8035  139.8895  158.4766 C.3     1  UNL1        0.0738
      3 C         143.7547  140.2952  159.5631 C.3     1  UNL1        0.0369
      4 C         143.8694  139.4660  160.8078 C.3     1  UNL1        0.0745
      5 C         143.0329  138.2309  160.9659 C.3     1  UNL1        0.0369
      6 C         142.0817  137.8252  159.8794 C.3     1  UNL1        0.0738
      7 N         144.8206  139.8717  161.8943 N.pl3   1  UNL1       -0.3058
      8 H         145.7758  139.9965  161.6911 H       1  UNL1        0.1495
      9 C         144.3165  140.0873  163.2906 C.ar    1  UNL1        0.1981
     10 N         143.9094  139.0142  164.2564 N.ar    1  UNL1       -0.2138
     11 C         143.4722  139.6775  165.5289 C.ar    1  UNL1        0.0999
     12 C         142.9672  139.1228  166.8278 C.ar    1  UNL1        0.0207
     13 C         142.5991  140.0509  167.9472 C.ar    1  UNL1        0.0016
     14 C         142.7361  141.5338  167.7677 C.ar    1  UNL1        0.0016
     15 C         143.2411  142.0886  166.4687 C.ar    1  UNL1        0.0188
     16 C         143.6092  141.1605  165.3493 C.ar    1  UNL1        0.0801
     17 N         144.1310  141.4137  163.9660 N.ar    1  UNL1       -0.2956
     18 C         144.4170  142.7574  163.3638 C.3     1  UNL1        0.1354
     19 C         143.2849  143.6610  162.9742 C.ar    1  UNL1        0.0006
     20 C         142.6651  143.5427  161.6134 C.ar    1  UNL1       -0.0001
     21 C         141.5330  144.4463  161.2236 C.ar    1  UNL1        0.0294
     22 C         141.0207  145.4682  162.1948 C.ar    1  UNL1        0.1401
     23 F         139.8886  146.3718  161.8051 F       1  UNL1       -0.2042
     24 C         141.6405  145.5866  163.5556 C.ar    1  UNL1        0.0294
     25 C         142.7726  144.6830  163.9453 C.ar    1  UNL1       -0.0001
     26 C         141.0158  138.2487  157.5482 C.3     1  UNL1        0.0722
     27 C         139.6191  138.7955  157.5313 C.3     1  UNL1        0.0191
     28 C         139.3068  140.0773  158.2451 C.3     1  UNL1        0.0234
     29 C         138.1432  140.1457  159.1892 C.3     1  UNL1        0.1016
     30 C         139.4001  140.3315  165.9447 C.ar    1  UNL1        0.0503
     31 C         139.5233  138.9170  165.4611 C.ar    1  UNL1        0.0148
     32 C         139.2965  138.5969  164.0132 C.ar    1  UNL1        0.0058
     33 C         138.9466  139.6914  163.0490 C.ar    1  UNL1        0.0542
     34 C         138.8234  141.1060  163.5327 C.ar    1  UNL1        0.0100
     35 C         138.4735  142.2004  162.5685 C.ar    1  UNL1        0.0542
     36 C         138.3503  143.6149  163.0521 C.ar    1  UNL1        0.0045
     37 C         138.5770  143.9350  164.4999 C.ar    1  UNL1        0.0002
     38 C         138.9270  142.8405  165.4640 C.ar    1  UNL1        0.0012
     39 C         139.0502  141.4260  164.9805 C.ar    1  UNL1        0.0138
     40 C         138.2468  141.8803  161.1206 C.2     1  UNL1        0.2550
     41 O         137.8968  142.9748  160.1564 O.2     1  UNL1       -0.2695
     42 N         138.3700  140.4658  160.6371 N.am    1  UNL1       -0.2229
     43 C         138.7199  139.3713  161.6013 C.2     1  UNL1        0.2550
     44 O         138.8431  137.9567  161.1176 O.2     1  UNL1       -0.2695
     45 C         139.0920  140.2322  169.9001 C.3     1  UNL1        0.0949
     46 C         138.8652  139.9121  168.4522 C.2     1  UNL1        0.2266
     47 O         137.8769  138.8526  168.0642 O.2     1  UNL1       -0.2748
     48 N         139.6268  140.6516  167.3924 N.am    1  UNL1       -0.2839
     49 H         140.2755  141.3470  167.6471 H       1  UNL1        0.1549
@<TRIPOS>BOND
     1    45    46    1
     2    46    47    2
     3    46    48   am
     4    48    30    1
     5    30    31   ar
     6    31    32   ar
     7    32    33   ar
     8    33    34   ar
     9    34    35   ar
    10    35    36   ar
    11    36    37   ar
    12    37    38   ar
    13    38    39   ar
    14    35    40    1
    15    40    41    2
    16    40    42   am
    17    42    29    1
    18    29    28    1
    19    28    27    1
    20    27    26    1
    21    26     1    1
    22     1     2    1
    23     2     3    1
    24     3     4    1
    25     4     7    1
    26     7     9    1
    27     9    10   ar
    28    10    11   ar
    29    11    12   ar
    30    12    13   ar
    31    13    14   ar
    32    14    15   ar
    33    15    16   ar
    34    16    17   ar
    35    17    18    1
    36    18    19    1
    37    19    20   ar
    38    20    21   ar
    39    21    22   ar
    40    22    23    1
    41    22    24   ar
    42    24    25   ar
    43     4     5    1
    44     5     6    1
    45    42    43   am
    46    43    44    2
    47    39    30   ar
    48     6     1    1
    49    43    33    1
    50    39    34   ar
    51    17     9   ar
    52    25    19   ar
    53    16    11   ar
    54    48    49    1
    55     7     8    1
@<TRIPOS>MOLECULE
*****
 49 55 0 0 0
SMALL
GASTEIGER

@<TRIPOS>ATOM
      1 N         140.9895  140.1138  157.0578 N.3     1  UNL1       -0.2726
      2 C         140.0533  141.2719  157.2370 C.3     1  UNL1        0.0738
      3 C         138.9069  141.1678  158.1987 C.3     1  UNL1        0.0369
      4 C         138.6967  139.9054  158.9813 C.3     1  UNL1        0.0745
      5 C         139.6330  138.7473  158.8021 C.3     1  UNL1        0.0369
      6 C         140.7794  138.8515  157.8404 C.3     1  UNL1        0.0738
      7 N         137.5504  139.8013  159.9430 N.pl3   1  UNL1       -0.3058
      8 H         136.6267  139.9151  159.6220 H       1  UNL1        0.1495
      9 C         137.8114  139.5236  161.3939 C.ar    1  UNL1        0.1981
     10 N         138.0707  138.1767  162.0009 N.ar    1  UNL1       -0.2138
     11 C         138.2785  138.3648  163.4746 C.ar    1  UNL1        0.0999
     12 C         138.5700  137.3928  164.5792 C.ar    1  UNL1        0.0207
     13 C         138.7305  137.8839  165.9874 C.ar    1  UNL1        0.0016
     14 C         138.5996  139.3469  166.2910 C.ar    1  UNL1        0.0016
     15 C         138.3080  140.3190  165.1864 C.ar    1  UNL1        0.0188
     16 C         138.1475  139.8279  163.7782 C.ar    1  UNL1        0.0801
     17 N         137.8588  140.5441  162.4922 N.ar    1  UNL1       -0.2956
     18 C         137.6536  142.0214  162.3325 C.3     1  UNL1        0.1354
     19 C         138.7315  142.9777  162.7493 C.ar    1  UNL1        0.0006
     20 C         140.0020  143.0672  161.9570 C.ar    1  UNL1       -0.0001
     21 C         141.0799  144.0235  162.3738 C.ar    1  UNL1        0.0294
     22 C         140.8873  144.8903  163.5827 C.ar    1  UNL1        0.1401
     23 F         141.9652  145.8465  163.9994 F       1  UNL1       -0.2042
     24 C         139.6168  144.8007  164.3750 C.ar    1  UNL1        0.0294
     25 C         138.5389  143.8444  163.9583 C.ar    1  UNL1       -0.0001
     26 C         142.1359  140.2179  156.0961 C.3     1  UNL1        0.0722
     27 C         143.4446  140.7946  156.5487 C.3     1  UNL1        0.0191
     28 C         143.6204  141.2278  157.9740 C.3     1  UNL1        0.0234
     29 C         144.2075  140.2812  158.9785 C.3     1  UNL1        0.1016
     30 C         142.3433  139.9367  165.5859 C.ar    1  UNL1        0.0503
     31 C         141.9196  138.6774  164.8898 C.ar    1  UNL1        0.0148
     32 C         142.2077  138.4944  163.4291 C.ar    1  UNL1        0.0058
     33 C         142.9195  139.5708  162.6645 C.ar    1  UNL1        0.0542
     34 C         143.3432  140.8302  163.3606 C.ar    1  UNL1        0.0100
     35 C         144.0551  141.9066  162.5960 C.ar    1  UNL1        0.0542
     36 C         144.4788  143.1659  163.2920 C.ar    1  UNL1        0.0045
     37 C         144.1907  143.3488  164.7526 C.ar    1  UNL1        0.0002
     38 C         143.4789  142.2724  165.5172 C.ar    1  UNL1        0.0012
     39 C         143.0551  141.0131  164.8212 C.ar    1  UNL1        0.0138
     40 C         144.3432  141.7236  161.1353 C.2     1  UNL1        0.2550
     41 O         145.0550  142.8000  160.3706 O.2     1  UNL1       -0.2695
     42 N         143.9194  140.4642  160.4393 N.am    1  UNL1       -0.2229
     43 C         143.2076  139.3878  161.2039 C.2     1  UNL1        0.2550
     44 O         142.7839  138.1284  160.5078 O.2     1  UNL1       -0.2695
     45 C         142.4545  139.4372  169.5214 C.3     1  UNL1        0.0949
     46 C         142.7427  139.2543  168.0607 C.2     1  UNL1        0.2266
     47 O         143.7182  138.2060  167.6142 O.2     1  UNL1       -0.2748
     48 N         142.0552  140.1196  167.0465 N.am    1  UNL1       -0.2839
     49 H         141.4149  140.8077  167.3395 H       1  UNL1        0.1549
@<TRIPOS>BOND
     1    45    46    1
     2    46    47    2
     3    46    48   am
     4    48    30    1
     5    30    31   ar
     6    31    32   ar
     7    32    33   ar
     8    33    34   ar
     9    34    35   ar
    10    35    36   ar
    11    36    37   ar
    12    37    38   ar
    13    38    39   ar
    14    35    40    1
    15    40    41    2
    16    40    42   am
    17    42    29    1
    18    29    28    1
    19    28    27    1
    20    27    26    1
    21    26     1    1
    22     1     2    1
    23     2     3    1
    24     3     4    1
    25     4     7    1
    26     7     9    1
    27     9    10   ar
    28    10    11   ar
    29    11    12   ar
    30    12    13   ar
    31    13    14   ar
    32    14    15   ar
    33    15    16   ar
    34    16    17   ar
    35    17    18    1
    36    18    19    1
    37    19    20   ar
    38    20    21   ar
    39    21    22   ar
    40    22    23    1
    41    22    24   ar
    42    24    25   ar
    43     4     5    1
    44     5     6    1
    45    42    43   am
    46    43    44    2
    47    39    30   ar
    48     6     1    1
    49    43    33    1
    50    39    34   ar
    51    17     9   ar
    52    25    19   ar
    53    16    11   ar
    54    48    49    1
    55     7     8    1
@<TRIPOS>MOLECULE
*****
 49 55 0 0 0
SMALL
GASTEIGER

@<TRIPOS>ATOM
      1 N         143.0892  139.3514  164.2973 N.3     1  UNL1       -0.2726
      2 C         144.2181  139.2572  163.3142 C.3     1  UNL1        0.0738
      3 C         143.9981  139.6398  161.8805 C.3     1  UNL1        0.0369
      4 C         142.6491  140.1164  161.4301 C.3     1  UNL1        0.0745
      5 C         141.5201  140.2106  162.4133 C.3     1  UNL1        0.0369
      6 C         141.7402  139.8281  163.8469 C.3     1  UNL1        0.0738
      7 N         142.4290  140.4989  159.9965 N.pl3   1  UNL1       -0.3058
      8 H         142.4564  141.4463  159.7300 H       1  UNL1        0.1495
      9 C         142.1670  139.4380  158.9689 C.ar    1  UNL1        0.1981
     10 N         143.1366  138.3838  158.5232 N.ar    1  UNL1       -0.2138
     11 C         142.4583  137.5393  157.4854 C.ar    1  UNL1        0.0999
     12 C         142.9258  136.3544  156.6933 C.ar    1  UNL1        0.0207
     13 C         142.0046  135.7018  155.7056 C.ar    1  UNL1        0.0016
     14 C         140.6160  136.2341  155.5100 C.ar    1  UNL1        0.0016
     15 C         140.1485  137.4190  156.3021 C.ar    1  UNL1        0.0188
     16 C         141.0696  138.0716  157.2898 C.ar    1  UNL1        0.0801
     17 N         140.8896  139.2451  158.2066 N.ar    1  UNL1       -0.2956
     18 C         139.6499  140.0792  158.3382 C.3     1  UNL1        0.1354
     19 C         139.0120  140.2677  159.6826 C.ar    1  UNL1        0.0006
     20 C         138.7449  141.6506  160.1987 C.ar    1  UNL1       -0.0001
     21 C         138.1070  141.8392  161.5431 C.ar    1  UNL1        0.0294
     22 C         137.7361  140.6450  162.3715 C.ar    1  UNL1        0.1401
     23 F         137.0981  140.8336  163.7159 F       1  UNL1       -0.2042
     24 C         138.0031  139.2621  161.8554 C.ar    1  UNL1        0.0294
     25 C         138.6410  139.0735  160.5110 C.ar    1  UNL1       -0.0001
     26 C         143.3093  138.9689  165.7309 C.3     1  UNL1        0.0722
     27 C         142.2877  139.3290  166.7686 C.3     1  UNL1        0.0191
     28 C         142.6780  140.1770  167.9427 C.3     1  UNL1        0.0234
     29 C         142.8943  141.6505  167.7647 C.3     1  UNL1        0.1016
     30 C         141.5053  144.7758  161.8021 C.ar    1  UNL1        0.0503
     31 C         142.9547  144.3906  161.8285 C.ar    1  UNL1        0.0148
     32 C         143.5224  143.6885  163.0263 C.ar    1  UNL1        0.0058
     33 C         142.6407  143.3716  164.1977 C.ar    1  UNL1        0.0542
     34 C         141.1912  143.7569  164.1712 C.ar    1  UNL1        0.0100
     35 C         140.3094  143.4400  165.3426 C.ar    1  UNL1        0.0542
     36 C         138.8600  143.8253  165.3162 C.ar    1  UNL1        0.0045
     37 C         138.2924  144.5274  164.1184 C.ar    1  UNL1        0.0002
     38 C         139.1741  144.8442  162.9470 C.ar    1  UNL1        0.0012
     39 C         140.6235  144.4590  162.9734 C.ar    1  UNL1        0.0138
     40 C         140.8772  142.7379  166.5404 C.2     1  UNL1        0.2550
     41 O         139.9954  142.4210  167.7118 O.2     1  UNL1       -0.2695
     42 N         142.3266  142.3527  166.5669 N.am    1  UNL1       -0.2229
     43 C         143.2083  142.6695  165.3955 C.2     1  UNL1        0.2550
     44 O         144.6578  142.2842  165.4220 O.2     1  UNL1       -0.2695
     45 C         140.3399  145.4882  158.0759 C.3     1  UNL1        0.0949
     46 C         140.9076  144.7860  159.2737 C.2     1  UNL1        0.2266
     47 O         141.4452  143.3920  159.1409 O.2     1  UNL1       -0.2748
     48 N         140.9376  145.4779  160.6043 N.am    1  UNL1       -0.2839
     49 H         140.5847  146.3929  160.6914 H       1  UNL1        0.1549
@<TRIPOS>BOND
     1    45    46    1
     2    46    47    2
     3    46    48   am
     4    48    30    1
     5    30    31   ar
     6    31    32   ar
     7    32    33   ar
     8    33    34   ar
     9    34    35   ar
    10    35    36   ar
    11    36    37   ar
    12    37    38   ar
    13    38    39   ar
    14    35    40    1
    15    40    41    2
    16    40    42   am
    17    42    29    1
    18    29    28    1
    19    28    27    1
    20    27    26    1
    21    26     1    1
    22     1     2    1
    23     2     3    1
    24     3     4    1
    25     4     7    1
    26     7     9    1
    27     9    10   ar
    28    10    11   ar
    29    11    12   ar
    30    12    13   ar
    31    13    14   ar
    32    14    15   ar
    33    15    16   ar
    34    16    17   ar
    35    17    18    1
    36    18    19    1
    37    19    20   ar
    38    20    21   ar
    39    21    22   ar
    40    22    23    1
    41    22    24   ar
    42    24    25   ar
    43     4     5    1
    44     5     6    1
    45    42    43   am
    46    43    44    2
    47    39    30   ar
    48     6     1    1
    49    43    33    1
    50    39    34   ar
    51    17     9   ar
    52    25    19   ar
    53    16    11   ar
    54    48    49    1
    55     7     8    1
@<TRIPOS>MOLECULE
*****
 49 55 0 0 0
SMALL
GASTEIGER

@<TRIPOS>ATOM
      1 N         137.5962  141.4795  162.1365 N.3     1  UNL1       -0.2726
      2 C         138.1617  142.5524  161.2539 C.3     1  UNL1        0.0738
      3 C         138.4818  142.2522  159.8194 C.3     1  UNL1        0.0369
      4 C         138.2364  140.8791  159.2678 C.3     1  UNL1        0.0745
      5 C         137.6709  139.8062  160.1505 C.3     1  UNL1        0.0369
      6 C         137.3508  140.1064  161.5848 C.3     1  UNL1        0.0738
      7 N         138.5565  140.5789  157.8334 N.pl3   1  UNL1       -0.3058
      8 H         138.1724  141.1340  157.1168 H       1  UNL1        0.1495
      9 C         139.4617  139.4328  157.4910 C.ar    1  UNL1        0.1981
     10 N         139.1474  138.3141  156.5424 N.ar    1  UNL1       -0.2138
     11 C         140.3316  137.3942  156.5021 C.ar    1  UNL1        0.0999
     12 C         140.5926  136.1266  155.7437 C.ar    1  UNL1        0.0207
     13 C         141.8995  135.4093  155.9089 C.ar    1  UNL1        0.0016
     14 C         142.9455  135.9595  156.8325 C.ar    1  UNL1        0.0016
     15 C         142.6847  137.2271  157.5910 C.ar    1  UNL1        0.0188
     16 C         141.3777  137.9444  157.4257 C.ar    1  UNL1        0.0801
     17 N         140.8400  139.2044  158.0369 N.ar    1  UNL1       -0.2956
     18 C         141.5551  140.0818  159.0211 C.3     1  UNL1        0.1354
     19 C         141.8292  139.5836  160.4091 C.ar    1  UNL1        0.0006
     20 C         143.0028  138.6853  160.6653 C.ar    1  UNL1       -0.0001
     21 C         143.2771  138.1870  162.0533 C.ar    1  UNL1        0.0294
     22 C         142.3777  138.5870  163.1851 C.ar    1  UNL1        0.1401
     23 F         142.6519  138.0888  164.5732 F       1  UNL1       -0.2042
     24 C         141.2041  139.4854  162.9290 C.ar    1  UNL1        0.0294
     25 C         140.9298  139.9836  161.5410 C.ar    1  UNL1       -0.0001
     26 C         137.2761  141.7797  163.5709 C.3     1  UNL1        0.0722
     27 C         138.2947  142.4544  164.4413 C.3     1  UNL1        0.0191
     28 C         138.2677  143.9445  164.6103 C.3     1  UNL1        0.0234
     29 C         139.5138  144.7478  164.3823 C.3     1  UNL1        0.1016
     30 C         143.1039  143.7738  158.6019 C.ar    1  UNL1        0.0503
     31 C         141.9598  144.7016  158.3188 C.ar    1  UNL1        0.0148
     32 C         141.0129  145.0820  159.4183 C.ar    1  UNL1        0.0058
     33 C         141.2102  144.5345  160.8008 C.ar    1  UNL1        0.0542
     34 C         142.3543  143.6067  161.0839 C.ar    1  UNL1        0.0100
     35 C         142.5516  143.0592  162.4664 C.ar    1  UNL1        0.0542
     36 C         143.6957  142.1314  162.7495 C.ar    1  UNL1        0.0045
     37 C         144.6425  141.7510  161.6500 C.ar    1  UNL1        0.0002
     38 C         144.4452  142.2985  160.2675 C.ar    1  UNL1        0.0012
     39 C         143.3011  143.2263  159.9844 C.ar    1  UNL1        0.0138
     40 C         141.6047  143.4396  163.5659 C.2     1  UNL1        0.2550
     41 O         141.8020  142.8921  164.9484 O.2     1  UNL1       -0.2695
     42 N         140.4606  144.3674  163.2828 N.am    1  UNL1       -0.2229
     43 C         140.2634  144.9149  161.9003 C.2     1  UNL1        0.2550
     44 O         139.1192  145.8428  161.6173 O.2     1  UNL1       -0.2695
     45 C         144.5194  142.1664  155.2609 C.3     1  UNL1        0.0949
     46 C         143.5725  142.5467  156.3603 C.2     1  UNL1        0.2266
     47 O         142.1475  142.0803  156.3177 O.2     1  UNL1       -0.2748
     48 N         144.0507  143.3934  157.5025 N.am    1  UNL1       -0.2839
     49 H         144.9860  143.6995  157.5304 H       1  UNL1        0.1549
@<TRIPOS>BOND
     1    45    46    1
     2    46    47    2
     3    46    48   am
     4    48    30    1
     5    30    31   ar
     6    31    32   ar
     7    32    33   ar
     8    33    34   ar
     9    34    35   ar
    10    35    36   ar
    11    36    37   ar
    12    37    38   ar
    13    38    39   ar
    14    35    40    1
    15    40    41    2
    16    40    42   am
    17    42    29    1
    18    29    28    1
    19    28    27    1
    20    27    26    1
    21    26     1    1
    22     1     2    1
    23     2     3    1
    24     3     4    1
    25     4     7    1
    26     7     9    1
    27     9    10   ar
    28    10    11   ar
    29    11    12   ar
    30    12    13   ar
    31    13    14   ar
    32    14    15   ar
    33    15    16   ar
    34    16    17   ar
    35    17    18    1
    36    18    19    1
    37    19    20   ar
    38    20    21   ar
    39    21    22   ar
    40    22    23    1
    41    22    24   ar
    42    24    25   ar
    43     4     5    1
    44     5     6    1
    45    42    43   am
    46    43    44    2
    47    39    30   ar
    48     6     1    1
    49    43    33    1
    50    39    34   ar
    51    17     9   ar
    52    25    19   ar
    53    16    11   ar
    54    48    49    1
    55     7     8    1
@<TRIPOS>MOLECULE
*****
 49 55 0 0 0
SMALL
GASTEIGER

@<TRIPOS>ATOM
      1 N         141.6762  142.4012  165.1417 N.3     1  UNL1       -0.2726
      2 C         143.1270  142.2670  165.4981 C.3     1  UNL1        0.0738
      3 C         144.1145  141.8134  164.4641 C.3     1  UNL1        0.0369
      4 C         143.6510  141.4939  163.0737 C.3     1  UNL1        0.0745
      5 C         142.2001  141.6281  162.7173 C.3     1  UNL1        0.0369
      6 C         141.2127  142.0817  163.7513 C.3     1  UNL1        0.0738
      7 N         144.6384  141.0403  162.0397 N.pl3   1  UNL1       -0.3058
      8 H         145.6032  141.1622  162.1934 H       1  UNL1        0.1495
      9 C         144.1559  140.4010  160.7713 C.ar    1  UNL1        0.1981
     10 N         144.1321  141.0413  159.4150 N.ar    1  UNL1       -0.2138
     11 C         143.5740  140.0452  158.4421 C.ar    1  UNL1        0.0999
     12 C         143.3167  140.1194  156.9662 C.ar    1  UNL1        0.0207
     13 C         142.7383  138.9379  156.2454 C.ar    1  UNL1        0.0016
     14 C         142.4173  137.6822  157.0004 C.ar    1  UNL1        0.0016
     15 C         142.6746  137.6080  158.4763 C.ar    1  UNL1        0.0188
     16 C         143.2530  138.7894  159.1972 C.ar    1  UNL1        0.0801
     17 N         143.6126  139.0094  160.6367 N.ar    1  UNL1       -0.2956
     18 C         143.4564  138.0127  161.7468 C.3     1  UNL1        0.1354
     19 C         142.2016  137.9957  162.5684 C.ar    1  UNL1        0.0006
     20 C         142.2807  138.1218  164.0610 C.ar    1  UNL1       -0.0001
     21 C         141.0259  138.1048  164.8827 C.ar    1  UNL1        0.0294
     22 C         139.6920  137.9617  164.2118 C.ar    1  UNL1        0.1401
     23 F         138.4372  137.9447  165.0335 F       1  UNL1       -0.2042
     24 C         139.6128  137.8357  162.7192 C.ar    1  UNL1        0.0294
     25 C         140.8676  137.8527  161.8975 C.ar    1  UNL1       -0.0001
     26 C         140.6888  142.8548  166.1758 C.3     1  UNL1        0.0722
     27 C         139.2753  143.1628  165.7789 C.3     1  UNL1        0.0191
     28 C         138.9318  144.5080  165.2113 C.3     1  UNL1        0.0234
     29 C         138.0816  144.6075  163.9796 C.3     1  UNL1        0.1016
     30 C         139.2482  140.5243  158.5743 C.ar    1  UNL1        0.0503
     31 C         138.2689  139.8553  159.4927 C.ar    1  UNL1        0.0148
     32 C         137.8398  140.5381  160.7575 C.ar    1  UNL1        0.0058
     33 C         138.3898  141.8900  161.1038 C.ar    1  UNL1        0.0542
     34 C         139.3691  142.5590  160.1853 C.ar    1  UNL1        0.0100
     35 C         139.9192  143.9108  160.5316 C.ar    1  UNL1        0.0542
     36 C         140.8984  144.5799  159.6132 C.ar    1  UNL1        0.0045
     37 C         141.3275  143.8970  158.3485 C.ar    1  UNL1        0.0002
     38 C         140.7774  142.5452  158.0022 C.ar    1  UNL1        0.0012
     39 C         139.7982  141.8762  158.9206 C.ar    1  UNL1        0.0138
     40 C         139.4900  144.5937  161.7964 C.2     1  UNL1        0.2550
     41 O         140.0401  145.9455  162.1428 O.2     1  UNL1       -0.2695
     42 N         138.5108  143.9246  162.7148 N.am    1  UNL1       -0.2229
     43 C         137.9607  142.5728  162.3685 C.2     1  UNL1        0.2550
     44 O         136.9814  141.9038  163.2870 O.2     1  UNL1       -0.2695
     45 C         139.1373  139.0026  154.9107 C.3     1  UNL1        0.0949
     46 C         138.7081  139.6854  156.1755 C.2     1  UNL1        0.2266
     47 O         137.3097  140.2122  156.3060 O.2     1  UNL1       -0.2748
     48 N         139.6773  139.8415  157.3096 N.am    1  UNL1       -0.2839
     49 H         140.5951  139.4958  157.2239 H       1  UNL1        0.1549
@<TRIPOS>BOND
     1    45    46    1
     2    46    47    2
     3    46    48   am
     4    48    30    1
     5    30    31   ar
     6    31    32   ar
     7    32    33   ar
     8    33    34   ar
     9    34    35   ar
    10    35    36   ar
    11    36    37   ar
    12    37    38   ar
    13    38    39   ar
    14    35    40    1
    15    40    41    2
    16    40    42   am
    17    42    29    1
    18    29    28    1
    19    28    27    1
    20    27    26    1
    21    26     1    1
    22     1     2    1
    23     2     3    1
    24     3     4    1
    25     4     7    1
    26     7     9    1
    27     9    10   ar
    28    10    11   ar
    29    11    12   ar
    30    12    13   ar
    31    13    14   ar
    32    14    15   ar
    33    15    16   ar
    34    16    17   ar
    35    17    18    1
    36    18    19    1
    37    19    20   ar
    38    20    21   ar
    39    21    22   ar
    40    22    23    1
    41    22    24   ar
    42    24    25   ar
    43     4     5    1
    44     5     6    1
    45    42    43   am
    46    43    44    2
    47    39    30   ar
    48     6     1    1
    49    43    33    1
    50    39    34   ar
    51    17     9   ar
    52    25    19   ar
    53    16    11   ar
    54    48    49    1
    55     7     8    1
