@<TRIPOS>MOLECULE
*****
 30 33 0 0 0
SMALL
GASTEIGER

@<TRIPOS>ATOM
      1 C         138.1162  142.8015  161.6131 C.2     1  UNL1        0.4054
      2 O         138.1531  142.6790  160.1186 O.2     1  UNL1       -0.2262
      3 N         138.1578  141.5696  162.4679 N.am    1  UNL1       -0.2354
      4 C         138.1284  141.5354  163.9672 C.3     1  UNL1        0.1405
      5 C         138.1886  140.1003  164.3994 C.3     1  UNL1        0.1879
      6 C         138.2554  139.2475  163.1671 C.3     1  UNL1        0.0746
      7 C         138.2363  140.1557  161.9734 C.3     1  UNL1        0.1587
      8 C         138.2869  139.7253  160.5374 C.2     1  UNL1        0.2440
      9 O         137.0703  139.8610  159.6705 O.2     1  UNL1       -0.2731
     10 N         139.5540  139.1592  159.9682 N.am    1  UNL1       -0.2767
     11 C         140.7103  139.0669  160.9191 C.3     1  UNL1        0.0949
     12 C         142.0955  138.5529  160.6602 C.3     1  UNL1        0.0388
     13 C         142.6664  138.0042  159.3861 C.3     1  UNL1        0.0739
     14 N         141.9932  137.8341  158.0565 N.3     1  UNL1       -0.2725
     15 C         140.5828  138.1706  157.6726 C.3     1  UNL1        0.0938
     16 C         139.4972  138.7604  158.5234 C.3     1  UNL1        0.1107
     17 C         142.8427  137.2503  156.9668 C.3     1  UNL1        0.0576
     18 C         143.6162  137.8100  155.8100 C.3     1  UNL1        0.0160
     19 C         144.0441  136.4247  155.4258 C.3     1  UNL1        0.0028
     20 C         143.2706  135.8649  156.5827 C.3     1  UNL1        0.0160
     21 C         139.2951  144.8818  162.6292 C.3     1  UNL1        0.2573
     22 O         138.0375  144.1560  162.2529 O.3     1  UNL1       -0.4304
     23 O         138.1832  139.6049  165.8152 O.3     1  UNL1       -0.4773
     24 C         139.4351  139.6733  166.6386 C.ar    1  UNL1        0.1407
     25 C         139.3494  139.9326  168.1136 C.ar    1  UNL1        0.0370
     26 C         140.6013  140.0011  168.9370 C.ar    1  UNL1        0.0054
     27 C         141.9389  139.8102  168.2855 C.ar    1  UNL1        0.0298
     28 C         142.0245  139.5509  166.8106 C.ar    1  UNL1        0.1432
     29 F         143.3621  139.3600  166.1591 F       1  UNL1       -0.2041
     30 C         140.7726  139.4824  165.9872 C.ar    1  UNL1        0.0665
@<TRIPOS>BOND
     1    21    22    1
     2    22     1    1
     3     1     2    2
     4     1     3   am
     5     3     4    1
     6     4     5    1
     7     5    23    1
     8    23    24    1
     9    24    25   ar
    10    25    26   ar
    11    26    27   ar
    12    27    28   ar
    13    28    29    1
    14    28    30   ar
    15     5     6    1
    16     6     7    1
    17     7     8    1
    18     8     9    2
    19     8    10   am
    20    10    11    1
    21    11    12    1
    22    12    13    1
    23    13    14    1
    24    14    17    1
    25    17    18    1
    26    18    19    1
    27    19    20    1
    28    14    15    1
    29    15    16    1
    30     7     3    1
    31    16    10    1
    32    30    24   ar
    33    20    17    1
@<TRIPOS>MOLECULE
*****
 30 33 0 0 0
SMALL
GASTEIGER

@<TRIPOS>ATOM
      1 C         143.2155  140.6945  159.0759 C.2     1  UNL1        0.4054
      2 O         143.3203  140.8492  160.5642 O.2     1  UNL1       -0.2262
      3 N         143.0128  139.3348  158.4756 N.am    1  UNL1       -0.2354
      4 C         142.8904  139.0262  157.0129 C.3     1  UNL1        0.1405
      5 C         142.6988  137.5458  156.8659 C.3     1  UNL1        0.1879
      6 C         142.7028  136.9394  158.2380 C.3     1  UNL1        0.0746
      7 C         142.8968  138.0452  159.2328 C.3     1  UNL1        0.1587
      8 C         142.9632  137.8887  160.7231 C.2     1  UNL1        0.2440
      9 O         144.2745  137.5921  161.3884 O.2     1  UNL1       -0.2731
     10 N         141.7184  138.0288  161.5482 N.am    1  UNL1       -0.2767
     11 C         140.4616  138.3253  160.7850 C.3     1  UNL1        0.0949
     12 C         139.0711  138.5201  161.3124 C.3     1  UNL1        0.0388
     13 C         138.5938  138.4665  162.7335 C.3     1  UNL1        0.0739
     14 N         139.3892  138.2049  163.9780 N.3     1  UNL1       -0.2725
     15 C         140.8583  137.9323  164.1088 C.3     1  UNL1        0.0938
     16 C         141.8950  137.8539  163.0275 C.3     1  UNL1        0.1107
     17 C         138.6127  138.2176  165.2614 C.3     1  UNL1        0.0576
     18 C         138.0249  137.1668  166.1558 C.3     1  UNL1        0.0160
     19 C         137.5147  138.2356  167.0762 C.3     1  UNL1        0.0028
     20 C         138.1026  139.2865  166.1817 C.3     1  UNL1        0.0160
     21 C         144.5903  142.6842  158.1267 C.3     1  UNL1        0.2573
     22 O         143.3135  141.8994  158.1878 O.3     1  UNL1       -0.4304
     23 O         142.5325  136.8021  155.5739 O.3     1  UNL1       -0.4773
     24 C         142.5391  135.3022  155.5656 C.ar    1  UNL1        0.1407
     25 C         141.2754  134.5482  155.2748 C.ar    1  UNL1        0.0370
     26 C         141.2820  133.0483  155.2665 C.ar    1  UNL1        0.0054
     27 C         142.5522  132.3023  155.5489 C.ar    1  UNL1        0.0298
     28 C         143.8160  133.0563  155.8397 C.ar    1  UNL1        0.1432
     29 F         145.0863  132.3103  156.1222 F       1  UNL1       -0.2041
     30 C         143.8093  134.5562  155.8480 C.ar    1  UNL1        0.0665
@<TRIPOS>BOND
     1    21    22    1
     2    22     1    1
     3     1     2    2
     4     1     3   am
     5     3     4    1
     6     4     5    1
     7     5    23    1
     8    23    24    1
     9    24    25   ar
    10    25    26   ar
    11    26    27   ar
    12    27    28   ar
    13    28    29    1
    14    28    30   ar
    15     5     6    1
    16     6     7    1
    17     7     8    1
    18     8     9    2
    19     8    10   am
    20    10    11    1
    21    11    12    1
    22    12    13    1
    23    13    14    1
    24    14    17    1
    25    17    18    1
    26    18    19    1
    27    19    20    1
    28    14    15    1
    29    15    16    1
    30     7     3    1
    31    16    10    1
    32    30    24   ar
    33    20    17    1
@<TRIPOS>MOLECULE
*****
 30 33 0 0 0
SMALL
GASTEIGER

@<TRIPOS>ATOM
      1 C         141.7423  139.8435  163.7646 C.2     1  UNL1        0.4054
      2 O         141.9318  139.7598  162.2790 O.2     1  UNL1       -0.2262
      3 N         142.5008  140.8633  164.5613 N.am    1  UNL1       -0.2354
      4 C         142.4153  141.0646  166.0452 C.3     1  UNL1        0.1405
      5 C         143.3396  142.1865  166.4149 C.3     1  UNL1        0.1879
      6 C         143.9965  142.6787  165.1594 C.3     1  UNL1        0.0746
      7 C         143.4780  141.8609  164.0137 C.3     1  UNL1        0.1587
      8 C         143.8683  142.0139  162.5736 C.2     1  UNL1        0.2440
      9 O         145.0637  141.2824  162.0387 O.2     1  UNL1       -0.2731
     10 N         143.0633  142.8983  161.6682 N.am    1  UNL1       -0.2767
     11 C         141.8892  143.5829  162.3027 C.3     1  UNL1        0.0949
     12 C         140.9006  144.5195  161.6738 C.3     1  UNL1        0.0388
     13 C         140.8421  145.0027  160.2549 C.3     1  UNL1        0.0739
     14 N         141.7576  144.6687  159.1146 N.3     1  UNL1       -0.2725
     15 C         142.9577  143.7690  159.1115 C.3     1  UNL1        0.0938
     16 C         143.5389  142.9811  160.2480 C.3     1  UNL1        0.1107
     17 C         141.4295  145.3207  157.8041 C.3     1  UNL1        0.0576
     18 C         142.1003  145.4073  156.4653 C.3     1  UNL1        0.0160
     19 C         140.9655  146.2426  155.9508 C.3     1  UNL1        0.0028
     20 C         140.2947  146.1559  157.2897 C.3     1  UNL1        0.0160
     21 C         141.1804  137.4743  164.6709 C.3     1  UNL1        0.2573
     22 O         140.7941  138.9073  164.4537 O.3     1  UNL1       -0.4304
     23 O         143.5672  142.7223  167.7974 O.3     1  UNL1       -0.4773
     24 C         142.7197  142.2406  168.9374 C.ar    1  UNL1        0.1407
     25 C         143.1283  141.0240  169.7139 C.ar    1  UNL1        0.0370
     26 C         142.2809  140.5422  170.8538 C.ar    1  UNL1        0.0054
     27 C         141.0247  141.2770  171.2174 C.ar    1  UNL1        0.0298
     28 C         140.6161  142.4936  170.4409 C.ar    1  UNL1        0.1432
     29 F         139.3600  143.2285  170.8044 F       1  UNL1       -0.2041
     30 C         141.4637  142.9754  169.3009 C.ar    1  UNL1        0.0665
@<TRIPOS>BOND
     1    21    22    1
     2    22     1    1
     3     1     2    2
     4     1     3   am
     5     3     4    1
     6     4     5    1
     7     5    23    1
     8    23    24    1
     9    24    25   ar
    10    25    26   ar
    11    26    27   ar
    12    27    28   ar
    13    28    29    1
    14    28    30   ar
    15     5     6    1
    16     6     7    1
    17     7     8    1
    18     8     9    2
    19     8    10   am
    20    10    11    1
    21    11    12    1
    22    12    13    1
    23    13    14    1
    24    14    17    1
    25    17    18    1
    26    18    19    1
    27    19    20    1
    28    14    15    1
    29    15    16    1
    30     7     3    1
    31    16    10    1
    32    30    24   ar
    33    20    17    1
@<TRIPOS>MOLECULE
*****
 30 33 0 0 0
SMALL
GASTEIGER

@<TRIPOS>ATOM
      1 C         142.3354  140.7277  158.4740 C.2     1  UNL1        0.4054
      2 O         141.3818  141.3753  159.4337 O.2     1  UNL1       -0.2262
      3 N         141.9595  139.4445  157.7941 N.am    1  UNL1       -0.2354
      4 C         142.8050  138.6846  156.8156 C.3     1  UNL1        0.1405
      5 C         142.0402  137.4664  156.3901 C.3     1  UNL1        0.1879
      6 C         140.7220  137.4734  157.1058 C.3     1  UNL1        0.0746
      7 C         140.6721  138.6959  157.9736 C.3     1  UNL1        0.1587
      8 C         139.5346  139.0991  158.8643 C.2     1  UNL1        0.2440
      9 O         138.3331  139.7837  158.2831 O.2     1  UNL1       -0.2731
     10 N         139.5984  138.8176  160.3362 N.am    1  UNL1       -0.2767
     11 C         140.8428  138.1296  160.8140 C.3     1  UNL1        0.0949
     12 C         141.2055  137.7155  162.2092 C.3     1  UNL1        0.0388
     13 C         140.4134  137.8870  163.4715 C.3     1  UNL1        0.0739
     14 N         139.0630  138.5150  163.6501 N.3     1  UNL1       -0.2725
     15 C         138.1711  139.1266  162.6107 C.3     1  UNL1        0.0938
     16 C         138.4094  139.2613  161.1359 C.3     1  UNL1        0.1107
     17 C         138.5346  138.5339  165.0539 C.3     1  UNL1        0.0576
     18 C         138.1560  139.6077  166.0303 C.3     1  UNL1        0.0160
     19 C         137.7873  138.5606  167.0390 C.3     1  UNL1        0.0028
     20 C         138.1658  137.4867  166.0625 C.3     1  UNL1        0.0160
     21 C         143.7305  142.7749  157.6914 C.3     1  UNL1        0.2573
     22 O         143.6651  141.3632  158.1941 O.3     1  UNL1       -0.4304
     23 O         142.5110  136.4242  155.4194 O.3     1  UNL1       -0.4773
     24 C         142.6650  135.0000  155.8643 C.ar    1  UNL1        0.1407
     25 C         141.7703  133.9368  155.2993 C.ar    1  UNL1        0.0370
     26 C         141.9243  132.5127  155.7441 C.ar    1  UNL1        0.0054
     27 C         142.9730  132.1515  156.7540 C.ar    1  UNL1        0.0298
     28 C         143.8677  133.2147  157.3190 C.ar    1  UNL1        0.1432
     29 F         144.9164  132.8536  158.3289 F       1  UNL1       -0.2041
     30 C         143.7136  134.6389  156.8741 C.ar    1  UNL1        0.0665
@<TRIPOS>BOND
     1    21    22    1
     2    22     1    1
     3     1     2    2
     4     1     3   am
     5     3     4    1
     6     4     5    1
     7     5    23    1
     8    23    24    1
     9    24    25   ar
    10    25    26   ar
    11    26    27   ar
    12    27    28   ar
    13    28    29    1
    14    28    30   ar
    15     5     6    1
    16     6     7    1
    17     7     8    1
    18     8     9    2
    19     8    10   am
    20    10    11    1
    21    11    12    1
    22    12    13    1
    23    13    14    1
    24    14    17    1
    25    17    18    1
    26    18    19    1
    27    19    20    1
    28    14    15    1
    29    15    16    1
    30     7     3    1
    31    16    10    1
    32    30    24   ar
    33    20    17    1
@<TRIPOS>MOLECULE
*****
 30 33 0 0 0
SMALL
GASTEIGER

@<TRIPOS>ATOM
      1 C         142.0531  138.8619  163.9771 C.2     1  UNL1        0.4054
      2 O         141.8329  138.5562  162.5252 O.2     1  UNL1       -0.2262
      3 N         140.8785  139.0780  164.8847 N.am    1  UNL1       -0.2354
      4 C         140.9425  139.3896  166.3505 C.3     1  UNL1        0.1405
      5 C         139.5372  139.5246  166.8575 C.3     1  UNL1        0.1879
      6 C         138.6047  139.2962  165.7049 C.3     1  UNL1        0.0746
      7 C         139.4337  139.0202  164.4857 C.3     1  UNL1        0.1587
      8 C         138.9098  138.7363  163.1091 C.2     1  UNL1        0.2440
      9 O         138.4365  137.3574  162.7564 O.2     1  UNL1       -0.2731
     10 N         138.8593  139.8314  162.0853 N.am    1  UNL1       -0.2767
     11 C         139.3560  141.1715  162.5405 C.3     1  UNL1        0.0949
     12 C         139.4349  142.4527  161.7645 C.3     1  UNL1        0.0388
     13 C         139.0363  142.7102  160.3415 C.3     1  UNL1        0.0739
     14 N         138.4606  141.7502  159.3431 N.3     1  UNL1       -0.2725
     15 C         138.1412  140.2955  159.5211 C.3     1  UNL1        0.0938
     16 C         138.3186  139.4415  160.7415 C.3     1  UNL1        0.1107
     17 C         138.1652  142.3202  157.9874 C.3     1  UNL1        0.0576
     18 C         138.7704  143.3950  157.1340 C.3     1  UNL1        0.0160
     19 C         137.7475  143.1264  156.0703 C.3     1  UNL1        0.0028
     20 C         137.1423  142.0515  156.9238 C.3     1  UNL1        0.0160
     21 C         144.5260  139.6149  163.7166 C.3     1  UNL1        0.2573
     22 O         143.4480  138.9516  164.5215 O.3     1  UNL1       -0.4304
     23 O         139.1350  139.8335  168.2692 O.3     1  UNL1       -0.4773
     24 C         140.0647  140.5990  169.1635 C.ar    1  UNL1        0.1407
     25 C         140.9960  139.8647  170.0819 C.ar    1  UNL1        0.0370
     26 C         141.9256  140.6300  170.9762 C.ar    1  UNL1        0.0054
     27 C         141.9241  142.1298  170.9521 C.ar    1  UNL1        0.0298
     28 C         140.9929  142.8642  170.0336 C.ar    1  UNL1        0.1432
     29 F         140.9913  144.3640  170.0095 F       1  UNL1       -0.2041
     30 C         140.0632  142.0987  169.1394 C.ar    1  UNL1        0.0665
@<TRIPOS>BOND
     1    21    22    1
     2    22     1    1
     3     1     2    2
     4     1     3   am
     5     3     4    1
     6     4     5    1
     7     5    23    1
     8    23    24    1
     9    24    25   ar
    10    25    26   ar
    11    26    27   ar
    12    27    28   ar
    13    28    29    1
    14    28    30   ar
    15     5     6    1
    16     6     7    1
    17     7     8    1
    18     8     9    2
    19     8    10   am
    20    10    11    1
    21    11    12    1
    22    12    13    1
    23    13    14    1
    24    14    17    1
    25    17    18    1
    26    18    19    1
    27    19    20    1
    28    14    15    1
    29    15    16    1
    30     7     3    1
    31    16    10    1
    32    30    24   ar
    33    20    17    1
@<TRIPOS>MOLECULE
*****
 30 33 0 0 0
SMALL
GASTEIGER

@<TRIPOS>ATOM
      1 C         144.0040  143.4478  163.3751 C.2     1  UNL1        0.4054
      2 O         144.0875  144.4842  162.2939 O.2     1  UNL1       -0.2262
      3 N         142.6660  143.0119  163.8945 N.am    1  UNL1       -0.2354
      4 C         142.4265  141.9912  164.9672 C.3     1  UNL1        0.1405
      5 C         140.9451  141.8687  165.1681 C.3     1  UNL1        0.1879
      6 C         140.2690  142.8137  164.2195 C.3     1  UNL1        0.0746
      7 C         141.3326  143.5203  163.4324 C.3     1  UNL1        0.1587
      8 C         141.1030  144.5537  162.3698 C.2     1  UNL1        0.2440
      9 O         141.0112  146.0041  162.7414 O.2     1  UNL1       -0.2731
     10 N         140.9653  144.1369  160.9355 N.am    1  UNL1       -0.2767
     11 C         141.0727  142.6641  160.6725 C.3     1  UNL1        0.0949
     12 C         140.9797  141.9386  159.3629 C.3     1  UNL1        0.0388
     13 C         140.7562  142.5069  157.9928 C.3     1  UNL1        0.0739
     14 N         140.5707  143.9409  157.5939 N.3     1  UNL1       -0.2725
     15 C         140.5627  145.1608  158.4666 C.3     1  UNL1        0.0938
     16 C         140.7383  145.2481  159.9537 C.3     1  UNL1        0.1107
     17 C         140.3660  144.1876  156.1285 C.3     1  UNL1        0.0576
     18 C         139.2313  143.9889  155.1678 C.3     1  UNL1        0.0160
     19 C         140.0766  144.5364  154.0562 C.3     1  UNL1        0.0028
     20 C         141.2114  144.7350  155.0169 C.3     1  UNL1        0.0160
     21 C         145.7577  141.5314  163.4180 C.3     1  UNL1        0.2573
     22 O         145.2585  142.8473  163.9369 O.3     1  UNL1       -0.4304
     23 O         140.2600  140.9605  166.1459 O.3     1  UNL1       -0.4773
     24 C         140.1172  141.3742  167.5806 C.ar    1  UNL1        0.1407
     25 C         139.6041  140.3962  168.5956 C.ar    1  UNL1        0.0370
     26 C         139.4613  140.8098  170.0303 C.ar    1  UNL1        0.0054
     27 C         139.8315  142.2015  170.4501 C.ar    1  UNL1        0.0298
     28 C         140.3446  143.1795  169.4351 C.ar    1  UNL1        0.1432
     29 F         140.7149  144.5712  169.8548 F       1  UNL1       -0.2041
     30 C         140.4874  142.7658  168.0004 C.ar    1  UNL1        0.0665
@<TRIPOS>BOND
     1    21    22    1
     2    22     1    1
     3     1     2    2
     4     1     3   am
     5     3     4    1
     6     4     5    1
     7     5    23    1
     8    23    24    1
     9    24    25   ar
    10    25    26   ar
    11    26    27   ar
    12    27    28   ar
    13    28    29    1
    14    28    30   ar
    15     5     6    1
    16     6     7    1
    17     7     8    1
    18     8     9    2
    19     8    10   am
    20    10    11    1
    21    11    12    1
    22    12    13    1
    23    13    14    1
    24    14    17    1
    25    17    18    1
    26    18    19    1
    27    19    20    1
    28    14    15    1
    29    15    16    1
    30     7     3    1
    31    16    10    1
    32    30    24   ar
    33    20    17    1
@<TRIPOS>MOLECULE
*****
 30 33 0 0 0
SMALL
GASTEIGER

@<TRIPOS>ATOM
      1 C         140.7314  145.1018  161.0664 C.2     1  UNL1        0.4054
      2 O         141.5128  145.6377  159.9036 O.2     1  UNL1       -0.2262
      3 N         139.8394  143.9094  160.8850 N.am    1  UNL1       -0.2354
      4 C         139.0018  143.2649  161.9494 C.3     1  UNL1        0.1405
      5 C         138.2732  142.1095  161.3296 C.3     1  UNL1        0.1879
      6 C         138.6606  142.0400  159.8821 C.3     1  UNL1        0.0746
      7 C         139.6286  143.1524  159.6074 C.3     1  UNL1        0.1587
      8 C         140.2725  143.4547  158.2868 C.2     1  UNL1        0.2440
      9 O         139.5362  144.2646  157.2612 O.2     1  UNL1       -0.2731
     10 N         141.6528  142.9471  157.9918 N.am    1  UNL1       -0.2767
     11 C         142.2999  142.1484  159.0842 C.3     1  UNL1        0.0949
     12 C         143.6574  141.5106  159.0981 C.3     1  UNL1        0.0388
     13 C         144.7033  141.5141  158.0228 C.3     1  UNL1        0.0739
     14 N         144.6500  142.1562  156.6683 N.3     1  UNL1       -0.2725
     15 C         143.5376  142.9534  156.0544 C.3     1  UNL1        0.0938
     16 C         142.2037  143.3054  156.6434 C.3     1  UNL1        0.1107
     17 C         145.8705  141.9775  155.8147 C.3     1  UNL1        0.0576
     18 C         147.3247  142.3157  155.9593 C.3     1  UNL1        0.0160
     19 C         147.5965  141.7248  154.6078 C.3     1  UNL1        0.0028
     20 C         146.1423  141.3865  154.4632 C.3     1  UNL1        0.0160
     21 C         141.8575  145.2717  163.4015 C.3     1  UNL1        0.2573
     22 O         140.8419  145.7581  162.4107 O.3     1  UNL1       -0.4304
     23 O         137.3239  141.1858  162.0337 O.3     1  UNL1       -0.4773
     24 C         137.8521  140.1328  162.9622 C.ar    1  UNL1        0.1407
     25 C         138.2708  138.7977  162.4216 C.ar    1  UNL1        0.0370
     26 C         138.7989  137.7447  163.3501 C.ar    1  UNL1        0.0054
     27 C         138.9085  138.0268  164.8193 C.ar    1  UNL1        0.0298
     28 C         138.4899  139.3619  165.3599 C.ar    1  UNL1        0.1432
     29 F         138.5994  139.6440  166.8291 F       1  UNL1       -0.2041
     30 C         137.9617  140.4149  164.4313 C.ar    1  UNL1        0.0665
@<TRIPOS>BOND
     1    21    22    1
     2    22     1    1
     3     1     2    2
     4     1     3   am
     5     3     4    1
     6     4     5    1
     7     5    23    1
     8    23    24    1
     9    24    25   ar
    10    25    26   ar
    11    26    27   ar
    12    27    28   ar
    13    28    29    1
    14    28    30   ar
    15     5     6    1
    16     6     7    1
    17     7     8    1
    18     8     9    2
    19     8    10   am
    20    10    11    1
    21    11    12    1
    22    12    13    1
    23    13    14    1
    24    14    17    1
    25    17    18    1
    26    18    19    1
    27    19    20    1
    28    14    15    1
    29    15    16    1
    30     7     3    1
    31    16    10    1
    32    30    24   ar
    33    20    17    1
@<TRIPOS>MOLECULE
*****
 30 33 0 0 0
SMALL
GASTEIGER

@<TRIPOS>ATOM
      1 C         138.0776  142.3937  162.1110 C.2     1  UNL1        0.4054
      2 O         137.6548  143.1682  160.8980 O.2     1  UNL1       -0.2262
      3 N         139.2832  142.8239  162.8930 N.am    1  UNL1       -0.2354
      4 C         139.8237  142.1523  164.1205 C.3     1  UNL1        0.1405
      5 C         141.0345  142.9145  164.5708 C.3     1  UNL1        0.1879
      6 C         141.2424  144.0572  163.6215 C.3     1  UNL1        0.0746
      7 C         140.1600  144.0012  162.5845 C.3     1  UNL1        0.1587
      8 C         139.9852  144.9550  161.4402 C.2     1  UNL1        0.2440
      9 O         139.1656  146.1984  161.6187 O.2     1  UNL1       -0.2731
     10 N         140.6301  144.6653  160.1172 N.am    1  UNL1       -0.2767
     11 C         141.4272  143.3967  160.0455 C.3     1  UNL1        0.0949
     12 C         142.1836  142.8320  158.8798 C.3     1  UNL1        0.0388
     13 C         142.3298  143.3966  157.4978 C.3     1  UNL1        0.0739
     14 N         141.7556  144.6653  156.9402 N.3     1  UNL1       -0.2725
     15 C         140.8935  145.6826  157.6269 C.3     1  UNL1        0.0938
     16 C         140.3926  145.6827  159.0408 C.3     1  UNL1        0.1107
     17 C         142.0875  144.9548  155.5063 C.3     1  UNL1        0.0576
     18 C         141.4093  145.6892  154.3881 C.3     1  UNL1        0.0160
     19 C         142.5568  145.3642  153.4785 C.3     1  UNL1        0.0028
     20 C         143.2351  144.6297  154.5968 C.3     1  UNL1        0.0160
     21 C         137.7541  139.8161  162.1495 C.3     1  UNL1        0.2573
     22 O         137.2947  141.1890  162.5422 O.3     1  UNL1       -0.4304
     23 O         141.8877  142.5909  165.7613 O.3     1  UNL1       -0.4773
     24 C         142.5388  141.2442  165.8737 C.ar    1  UNL1        0.1407
     25 C         142.2444  140.3649  167.0527 C.ar    1  UNL1        0.0370
     26 C         142.8955  139.0183  167.1651 C.ar    1  UNL1        0.0054
     27 C         143.8409  138.5509  166.0985 C.ar    1  UNL1        0.0298
     28 C         144.1353  139.4303  164.9194 C.ar    1  UNL1        0.1432
     29 F         145.0808  138.9630  163.8528 F       1  UNL1       -0.2041
     30 C         143.4842  140.7769  164.8071 C.ar    1  UNL1        0.0665
@<TRIPOS>BOND
     1    21    22    1
     2    22     1    1
     3     1     2    2
     4     1     3   am
     5     3     4    1
     6     4     5    1
     7     5    23    1
     8    23    24    1
     9    24    25   ar
    10    25    26   ar
    11    26    27   ar
    12    27    28   ar
    13    28    29    1
    14    28    30   ar
    15     5     6    1
    16     6     7    1
    17     7     8    1
    18     8     9    2
    19     8    10   am
    20    10    11    1
    21    11    12    1
    22    12    13    1
    23    13    14    1
    24    14    17    1
    25    17    18    1
    26    18    19    1
    27    19    20    1
    28    14    15    1
    29    15    16    1
    30     7     3    1
    31    16    10    1
    32    30    24   ar
    33    20    17    1
@<TRIPOS>MOLECULE
*****
 30 33 0 0 0
SMALL
GASTEIGER

@<TRIPOS>ATOM
      1 C         143.0951  143.5780  161.2483 C.2     1  UNL1        0.4054
      2 O         143.3034  144.2441  162.5761 O.2     1  UNL1       -0.2262
      3 N         143.3995  142.1182  161.0856 N.am    1  UNL1       -0.2354
      4 C         143.2417  141.3198  159.8256 C.3     1  UNL1        0.1405
      5 C         143.6597  139.9088  160.1156 C.3     1  UNL1        0.1879
      6 C         144.0759  139.8351  161.5548 C.3     1  UNL1        0.0746
      7 C         143.9151  141.2007  162.1543 C.3     1  UNL1        0.1587
      8 C         144.2168  141.5817  163.5734 C.2     1  UNL1        0.2440
      9 O         145.6320  141.8469  163.9940 O.2     1  UNL1       -0.2731
     10 N         143.1035  141.6975  164.5718 N.am    1  UNL1       -0.2767
     11 C         141.7272  141.4117  164.0482 C.3     1  UNL1        0.0949
     12 C         140.4212  141.4416  164.7852 C.3     1  UNL1        0.0388
     13 C         140.1688  141.7648  166.2281 C.3     1  UNL1        0.0739
     14 N         141.1601  142.1378  167.2902 N.3     1  UNL1       -0.2725
     15 C         142.6486  142.2799  167.1718 C.3     1  UNL1        0.0938
     16 C         143.5135  142.0839  165.9620 C.3     1  UNL1        0.1107
     17 C         140.5871  142.4041  168.6507 C.3     1  UNL1        0.0576
     18 C         140.4150  143.6218  169.5093 C.3     1  UNL1        0.0160
     19 C         139.7767  142.7806  170.5746 C.3     1  UNL1        0.0028
     20 C         139.9488  141.5627  169.7159 C.3     1  UNL1        0.0160
     21 C         141.1614  144.8515  160.0698 C.3     1  UNL1        0.2573
     22 O         142.5825  144.3717  160.0832 O.3     1  UNL1       -0.4304
     23 O         143.6614  138.7711  159.1380 O.3     1  UNL1       -0.4773
     24 C         142.3923  138.3796  158.4407 C.ar    1  UNL1        0.1407
     25 C         141.0653  138.7043  159.0601 C.ar    1  UNL1        0.0370
     26 C         139.7963  138.3128  158.3629 C.ar    1  UNL1        0.0054
     27 C         139.8541  137.5966  157.0463 C.ar    1  UNL1        0.0298
     28 C         141.1811  137.2719  156.4268 C.ar    1  UNL1        0.1432
     29 F         141.2390  136.5556  155.1101 F       1  UNL1       -0.2041
     30 C         142.4501  137.6634  157.1241 C.ar    1  UNL1        0.0665
@<TRIPOS>BOND
     1    21    22    1
     2    22     1    1
     3     1     2    2
     4     1     3   am
     5     3     4    1
     6     4     5    1
     7     5    23    1
     8    23    24    1
     9    24    25   ar
    10    25    26   ar
    11    26    27   ar
    12    27    28   ar
    13    28    29    1
    14    28    30   ar
    15     5     6    1
    16     6     7    1
    17     7     8    1
    18     8     9    2
    19     8    10   am
    20    10    11    1
    21    11    12    1
    22    12    13    1
    23    13    14    1
    24    14    17    1
    25    17    18    1
    26    18    19    1
    27    19    20    1
    28    14    15    1
    29    15    16    1
    30     7     3    1
    31    16    10    1
    32    30    24   ar
    33    20    17    1
