@<TRIPOS>MOLECULE
*****
 38 42 0 0 0
SMALL
GASTEIGER

@<TRIPOS>ATOM
      1 N         144.0409  140.4266  161.8314 N.3     1  UNL1       -0.2614
      2 C         143.7236  141.8707  162.0839 C.3     1  UNL1        0.1370
      3 C         144.7040  142.9309  162.4900 C.3     1  UNL1        0.0468
      4 C         143.9565  144.2237  162.6316 C.3     1  UNL1        0.0957
      5 N         142.5143  143.9625  162.3131 N.am    1  UNL1       -0.2743
      6 C         142.3703  142.5083  161.9746 C.2     1  UNL1        0.2404
      7 O         141.0966  141.8138  161.5936 O.2     1  UNL1       -0.2734
      8 C         141.4098  144.9773  162.3301 C.3     1  UNL1        0.1202
      9 C         140.1644  144.7172  163.1246 C.ar    1  UNL1       -0.0023
     10 C         138.9207  144.2404  162.4347 C.ar    1  UNL1       -0.0026
     11 C         137.6752  143.9802  163.2292 C.ar    1  UNL1       -0.0003
     12 C         137.6734  144.1969  164.7135 C.ar    1  UNL1       -0.0000
     13 C         138.9171  144.6736  165.4033 C.ar    1  UNL1       -0.0003
     14 C         140.1626  144.9338  164.6089 C.ar    1  UNL1       -0.0026
     15 C         144.0094  139.8852  160.4328 C.3     1  UNL1        0.1186
     16 N         141.6791  138.6085  160.1413 N.ar    1  UNL1       -0.3070
     17 C         140.5220  138.7164  159.1929 C.ar    1  UNL1        0.1786
     18 N         140.8227  139.8159  158.2178 N.ar    1  UNL1       -0.2226
     19 C         142.1658  140.3876  158.5636 C.ar    1  UNL1        0.1147
     20 C         142.6950  139.6414  159.7524 C.ar    1  UNL1        0.0741
     21 C         141.7993  137.6382  161.2788 C.3     1  UNL1        0.1340
     22 C         139.0898  138.0134  164.8520 C.ar    1  UNL1        0.0684
     23 C         138.7199  138.6747  163.5576 C.ar    1  UNL1        0.0100
     24 C         139.6230  138.5497  162.3665 C.ar    1  UNL1       -0.0017
     25 C         140.8961  137.7633  162.4699 C.ar    1  UNL1        0.0005
     26 C         141.2661  137.1020  163.7644 C.ar    1  UNL1       -0.0017
     27 C         140.3629  137.2270  164.9555 C.ar    1  UNL1        0.0100
     28 N         137.2835  138.2636  167.2342 N.1     1  UNL1       -0.1908
     29 C         138.1867  138.1385  166.0431 C.1     1  UNL1        0.1004
     30 C         144.3896  139.5238  162.9774 C.3     1  UNL1        0.0732
     31 C         144.4448  140.0708  164.3731 C.3     1  UNL1        0.0220
     32 C         143.6712  139.4034  165.4712 C.3     1  UNL1        0.0278
     33 C         142.3787  139.9982  165.9465 C.ar    1  UNL1       -0.0221
     34 C         141.5519  140.8361  165.0167 C.ar    1  UNL1       -0.0043
     35 C         140.2595  141.4308  165.4919 C.ar    1  UNL1       -0.0003
     36 C         139.7938  141.1878  166.8970 C.ar    1  UNL1       -0.0000
     37 C         140.6206  140.3500  167.8267 C.ar    1  UNL1       -0.0003
     38 C         141.9131  139.7551  167.3515 C.ar    1  UNL1       -0.0043
@<TRIPOS>BOND
     1    28    29    3
     2    29    22    1
     3    22    23   ar
     4    23    24   ar
     5    24    25   ar
     6    25    21    1
     7    21    16    1
     8    16    17   ar
     9    17    18   ar
    10    18    19   ar
    11    19    20   ar
    12    20    15    1
    13    15     1    1
    14     1    30    1
    15    30    31    1
    16    31    32    1
    17    32    33    1
    18    33    34   ar
    19    34    35   ar
    20    35    36   ar
    21    36    37   ar
    22    37    38   ar
    23     2     1    1
    24     2     3    1
    25     3     4    1
    26     4     5    1
    27     5     8    1
    28     8     9    1
    29     9    10   ar
    30    10    11   ar
    31    11    12   ar
    32    12    13   ar
    33    13    14   ar
    34     5     6   am
    35     6     7    2
    36    25    26   ar
    37    26    27   ar
    38    27    22   ar
    39    20    16   ar
    40    38    33   ar
    41     6     2    1
    42    14     9   ar
@<TRIPOS>MOLECULE
*****
 38 42 0 0 0
SMALL
GASTEIGER

@<TRIPOS>ATOM
      1 N         142.8317  142.7449  161.0812 N.3     1  UNL1       -0.2614
      2 C         141.3919  142.3499  160.9369 C.3     1  UNL1        0.1370
      3 C         140.5270  142.5931  159.7357 C.3     1  UNL1        0.0468
      4 C         139.1646  142.0359  160.0249 C.3     1  UNL1        0.0957
      5 N         139.1876  141.4484  161.4049 N.am    1  UNL1       -0.2743
      6 C         140.5640  141.6425  161.9685 C.2     1  UNL1        0.2404
      7 O         141.0306  141.2058  163.3255 O.2     1  UNL1       -0.2734
      8 C         138.0361  140.7836  162.0993 C.3     1  UNL1        0.1202
      9 C         138.2916  139.8174  163.2179 C.ar    1  UNL1       -0.0023
     10 C         138.8019  138.4395  162.9168 C.ar    1  UNL1       -0.0026
     11 C         139.0574  137.4732  164.0354 C.ar    1  UNL1       -0.0003
     12 C         138.8024  137.8850  165.4551 C.ar    1  UNL1       -0.0000
     13 C         138.2920  139.2630  165.7562 C.ar    1  UNL1       -0.0003
     14 C         138.0366  140.2292  164.6375 C.ar    1  UNL1       -0.0026
     15 C         143.9128  141.8377  160.5727 C.3     1  UNL1        0.1186
     16 N         144.1212  139.5677  161.9686 N.ar    1  UNL1       -0.3070
     17 C         143.8401  138.1210  161.6890 C.ar    1  UNL1        0.1786
     18 N         143.3287  138.0114  160.2831 N.ar    1  UNL1       -0.2226
     19 C         143.2937  139.3904  159.6938 C.ar    1  UNL1        0.1147
     20 C         143.7834  140.3522  160.7355 C.ar    1  UNL1        0.0741
     21 C         144.6475  140.1309  163.2554 C.3     1  UNL1        0.1340
     22 C         142.1290  139.9656  166.9809 C.ar    1  UNL1        0.0684
     23 C         142.3140  138.7337  166.1454 C.ar    1  UNL1        0.0100
     24 C         143.1535  138.7888  164.9035 C.ar    1  UNL1       -0.0017
     25 C         143.8080  140.0758  164.4972 C.ar    1  UNL1        0.0005
     26 C         143.6230  141.3077  165.3327 C.ar    1  UNL1       -0.0017
     27 C         142.7835  141.2526  166.5746 C.ar    1  UNL1        0.0100
     28 N         140.4499  139.8553  169.4646 N.1     1  UNL1       -0.1908
     29 C         141.2895  139.9105  168.2227 C.1     1  UNL1        0.1004
     30 C         143.1905  144.0469  161.7338 C.3     1  UNL1        0.0732
     31 C         143.1242  144.1810  163.2264 C.3     1  UNL1        0.0220
     32 C         142.1284  145.1119  163.8522 C.3     1  UNL1        0.0278
     33 C         140.6759  144.7395  163.8924 C.ar    1  UNL1       -0.0221
     34 C         140.1295  143.9761  165.0624 C.ar    1  UNL1       -0.0043
     35 C         138.6770  143.6037  165.1026 C.ar    1  UNL1       -0.0003
     36 C         137.7710  143.9945  163.9728 C.ar    1  UNL1       -0.0000
     37 C         138.3174  144.7579  162.8029 C.ar    1  UNL1       -0.0003
     38 C         139.7699  145.1304  162.7627 C.ar    1  UNL1       -0.0043
@<TRIPOS>BOND
     1    28    29    3
     2    29    22    1
     3    22    23   ar
     4    23    24   ar
     5    24    25   ar
     6    25    21    1
     7    21    16    1
     8    16    17   ar
     9    17    18   ar
    10    18    19   ar
    11    19    20   ar
    12    20    15    1
    13    15     1    1
    14     1    30    1
    15    30    31    1
    16    31    32    1
    17    32    33    1
    18    33    34   ar
    19    34    35   ar
    20    35    36   ar
    21    36    37   ar
    22    37    38   ar
    23     2     1    1
    24     2     3    1
    25     3     4    1
    26     4     5    1
    27     5     8    1
    28     8     9    1
    29     9    10   ar
    30    10    11   ar
    31    11    12   ar
    32    12    13   ar
    33    13    14   ar
    34     5     6   am
    35     6     7    2
    36    25    26   ar
    37    26    27   ar
    38    27    22   ar
    39    20    16   ar
    40    38    33   ar
    41     6     2    1
    42    14     9   ar
@<TRIPOS>MOLECULE
*****
 38 42 0 0 0
SMALL
GASTEIGER

@<TRIPOS>ATOM
      1 N         142.9177  141.8314  162.0135 N.3     1  UNL1       -0.2614
      2 C         142.2259  141.4632  163.2925 C.3     1  UNL1        0.1370
      3 C         140.7427  141.3827  163.5011 C.3     1  UNL1        0.0468
      4 C         140.4960  140.9806  164.9251 C.3     1  UNL1        0.0957
      5 N         141.8268  140.8127  165.5964 N.am    1  UNL1       -0.2743
      6 C         142.8959  141.1109  164.5875 C.2     1  UNL1        0.2404
      7 O         144.3753  141.0649  164.8309 O.2     1  UNL1       -0.2734
      8 C         142.0493  140.4161  167.0258 C.3     1  UNL1        0.1202
      9 C         141.2385  141.0523  168.1157 C.ar    1  UNL1       -0.0023
     10 C         140.1977  140.2517  168.8408 C.ar    1  UNL1       -0.0026
     11 C         139.3868  140.8879  169.9307 C.ar    1  UNL1       -0.0003
     12 C         139.6167  142.3246  170.2954 C.ar    1  UNL1       -0.0000
     13 C         140.6576  143.1252  169.5703 C.ar    1  UNL1       -0.0003
     14 C         141.4685  142.4890  168.4804 C.ar    1  UNL1       -0.0026
     15 C         143.3978  140.7562  161.0841 C.3     1  UNL1        0.1186
     16 N         141.8356  138.8419  160.0643 N.ar    1  UNL1       -0.3070
     17 C         140.9944  138.7049  158.8300 C.ar    1  UNL1        0.1786
     18 N         141.1135  139.9772  158.0442 N.ar    1  UNL1       -0.2226
     19 C         142.0284  140.9005  158.7931 C.ar    1  UNL1        0.1147
     20 C         142.4746  140.1989  160.0415 C.ar    1  UNL1        0.0741
     21 C         142.0075  137.8042  161.1337 C.3     1  UNL1        0.1340
     22 C         139.2345  137.7441  164.6773 C.ar    1  UNL1        0.0684
     23 C         138.6950  138.0311  163.3075 C.ar    1  UNL1        0.0100
     24 C         139.6193  138.0512  162.1263 C.ar    1  UNL1       -0.0017
     25 C         141.0832  137.7842  162.3149 C.ar    1  UNL1        0.0005
     26 C         141.6228  137.4972  163.6847 C.ar    1  UNL1       -0.0017
     27 C         140.6985  137.4771  164.8659 C.ar    1  UNL1        0.0100
     28 N         137.3859  137.7040  167.0397 N.1     1  UNL1       -0.1908
     29 C         138.3102  137.7240  165.8585 C.1     1  UNL1        0.1004
     30 C         143.1293  143.2746  161.6639 C.3     1  UNL1        0.0732
     31 C         142.7665  144.3460  162.6490 C.3     1  UNL1        0.0220
     32 C         141.5294  145.1682  162.4409 C.3     1  UNL1        0.0278
     33 C         140.2658  144.8199  163.1704 C.ar    1  UNL1       -0.0221
     34 C         139.0090  144.5385  162.4014 C.ar    1  UNL1       -0.0043
     35 C         137.7455  144.1901  163.1310 C.ar    1  UNL1       -0.0003
     36 C         137.7388  144.1232  164.6294 C.ar    1  UNL1       -0.0000
     37 C         138.9955  144.4046  165.3984 C.ar    1  UNL1       -0.0003
     38 C         140.2591  144.7530  164.6689 C.ar    1  UNL1       -0.0043
@<TRIPOS>BOND
     1    28    29    3
     2    29    22    1
     3    22    23   ar
     4    23    24   ar
     5    24    25   ar
     6    25    21    1
     7    21    16    1
     8    16    17   ar
     9    17    18   ar
    10    18    19   ar
    11    19    20   ar
    12    20    15    1
    13    15     1    1
    14     1    30    1
    15    30    31    1
    16    31    32    1
    17    32    33    1
    18    33    34   ar
    19    34    35   ar
    20    35    36   ar
    21    36    37   ar
    22    37    38   ar
    23     2     1    1
    24     2     3    1
    25     3     4    1
    26     4     5    1
    27     5     8    1
    28     8     9    1
    29     9    10   ar
    30    10    11   ar
    31    11    12   ar
    32    12    13   ar
    33    13    14   ar
    34     5     6   am
    35     6     7    2
    36    25    26   ar
    37    26    27   ar
    38    27    22   ar
    39    20    16   ar
    40    38    33   ar
    41     6     2    1
    42    14     9   ar
@<TRIPOS>MOLECULE
*****
 38 42 0 0 0
SMALL
GASTEIGER

@<TRIPOS>ATOM
      1 N         142.4041  142.0924  159.8177 N.3     1  UNL1       -0.2614
      2 C         141.3128  141.0668  159.9023 C.3     1  UNL1        0.1370
      3 C         141.1004  139.9249  158.9531 C.3     1  UNL1        0.0468
      4 C         139.8985  139.1554  159.4152 C.3     1  UNL1        0.0957
      5 N         139.3682  139.8217  160.6499 N.am    1  UNL1       -0.2743
      6 C         140.2422  141.0029  160.9510 C.2     1  UNL1        0.2404
      7 O         140.0750  141.9535  162.0993 O.2     1  UNL1       -0.2734
      8 C         138.1736  139.3836  161.4442 C.3     1  UNL1        0.1202
      9 C         138.3104  139.1020  162.9112 C.ar    1  UNL1       -0.0023
     10 C         138.7099  137.7337  163.3781 C.ar    1  UNL1       -0.0026
     11 C         138.8468  137.4520  164.8451 C.ar    1  UNL1       -0.0003
     12 C         138.5841  138.5388  165.8452 C.ar    1  UNL1       -0.0000
     13 C         138.1846  139.9071  165.3782 C.ar    1  UNL1       -0.0003
     14 C         138.0478  140.1887  163.9112 C.ar    1  UNL1       -0.0026
     15 C         142.0786  143.5033  159.4261 C.3     1  UNL1        0.1186
     16 N         141.7527  144.7856  161.7487 N.ar    1  UNL1       -0.3070
     17 C         140.6921  145.6722  162.3311 C.ar    1  UNL1        0.1786
     18 N         139.6017  145.8216  161.3118 N.ar    1  UNL1       -0.2226
     19 C         139.9884  145.0273  160.0995 C.ar    1  UNL1        0.1147
     20 C         141.3177  144.3870  160.3695 C.ar    1  UNL1        0.0741
     21 C         143.0248  144.3704  162.4264 C.3     1  UNL1        0.1340
     22 C         142.8783  142.3593  166.4493 C.ar    1  UNL1        0.0684
     23 C         144.1728  142.9171  165.9363 C.ar    1  UNL1        0.0100
     24 C         144.2216  143.5874  164.5954 C.ar    1  UNL1       -0.0017
     25 C         142.9760  143.7001  163.7674 C.ar    1  UNL1        0.0005
     26 C         141.6815  143.1423  164.2803 C.ar    1  UNL1       -0.0017
     27 C         141.6327  142.4719  165.6213 C.ar    1  UNL1        0.0100
     28 N         142.7807  141.0185  169.1312 N.1     1  UNL1       -0.1908
     29 C         142.8295  141.6889  167.7903 C.1     1  UNL1        0.1004
     30 C         143.8209  141.7071  160.1248 C.3     1  UNL1        0.0732
     31 C         144.1041  140.4901  160.9547 C.3     1  UNL1        0.0220
     32 C         144.6846  140.6386  162.3298 C.3     1  UNL1        0.0278
     33 C         144.0627  139.9168  163.4883 C.ar    1  UNL1       -0.0221
     34 C         144.9160  139.4668  164.6371 C.ar    1  UNL1       -0.0043
     35 C         144.2941  138.7451  165.7957 C.ar    1  UNL1       -0.0003
     36 C         142.8189  138.4733  165.8055 C.ar    1  UNL1       -0.0000
     37 C         141.9657  138.9233  164.6569 C.ar    1  UNL1       -0.0003
     38 C         142.5876  139.6451  163.4982 C.ar    1  UNL1       -0.0043
@<TRIPOS>BOND
     1    28    29    3
     2    29    22    1
     3    22    23   ar
     4    23    24   ar
     5    24    25   ar
     6    25    21    1
     7    21    16    1
     8    16    17   ar
     9    17    18   ar
    10    18    19   ar
    11    19    20   ar
    12    20    15    1
    13    15     1    1
    14     1    30    1
    15    30    31    1
    16    31    32    1
    17    32    33    1
    18    33    34   ar
    19    34    35   ar
    20    35    36   ar
    21    36    37   ar
    22    37    38   ar
    23     2     1    1
    24     2     3    1
    25     3     4    1
    26     4     5    1
    27     5     8    1
    28     8     9    1
    29     9    10   ar
    30    10    11   ar
    31    11    12   ar
    32    12    13   ar
    33    13    14   ar
    34     5     6   am
    35     6     7    2
    36    25    26   ar
    37    26    27   ar
    38    27    22   ar
    39    20    16   ar
    40    38    33   ar
    41     6     2    1
    42    14     9   ar
@<TRIPOS>MOLECULE
*****
 38 42 0 0 0
SMALL
GASTEIGER

@<TRIPOS>ATOM
      1 N         142.8012  138.8645  163.7285 N.3     1  UNL1       -0.2614
      2 C         142.2222  139.7789  164.7671 C.3     1  UNL1        0.1370
      3 C         142.1954  139.5287  166.2459 C.3     1  UNL1        0.0468
      4 C         141.5250  140.6993  166.9019 C.3     1  UNL1        0.0957
      5 N         141.1376  141.6729  165.8286 N.am    1  UNL1       -0.2743
      6 C         141.5685  141.1041  164.5093 C.2     1  UNL1        0.2404
      7 O         141.3788  141.7475  163.1676 O.2     1  UNL1       -0.2734
      8 C         140.4414  142.9850  166.0380 C.3     1  UNL1        0.1202
      9 C         139.7774  143.6744  164.8831 C.ar    1  UNL1       -0.0023
     10 C         140.5229  144.7157  164.1020 C.ar    1  UNL1       -0.0026
     11 C         139.8589  145.4052  162.9471 C.ar    1  UNL1       -0.0003
     12 C         138.4494  145.0533  162.5733 C.ar    1  UNL1       -0.0000
     13 C         137.7040  144.0120  163.3543 C.ar    1  UNL1       -0.0003
     14 C         138.3680  143.3226  164.5093 C.ar    1  UNL1       -0.0026
     15 C         141.8928  138.0449  162.8606 C.3     1  UNL1        0.1186
     16 N         140.0173  138.6123  161.0425 N.ar    1  UNL1       -0.3070
     17 C         140.0171  139.2331  159.6770 C.ar    1  UNL1        0.1786
     18 N         141.4326  139.5872  159.3286 N.ar    1  UNL1       -0.2226
     19 C         142.3075  139.1851  160.4788 C.ar    1  UNL1        0.1147
     20 C         141.4328  138.5826  161.5381 C.ar    1  UNL1        0.0741
     21 C         138.8134  138.1094  161.7825 C.3     1  UNL1        0.1340
     22 C         138.3704  138.9353  166.1839 C.ar    1  UNL1        0.0684
     23 C         138.7620  137.5659  165.7134 C.ar    1  UNL1        0.0100
     24 C         138.9096  137.2906  164.2463 C.ar    1  UNL1       -0.0017
     25 C         138.6657  138.3847  163.2496 C.ar    1  UNL1        0.0005
     26 C         138.2741  139.7541  163.7201 C.ar    1  UNL1       -0.0017
     27 C         138.1265  140.0294  165.1872 C.ar    1  UNL1        0.0100
     28 N         138.0751  139.4859  169.1181 N.1     1  UNL1       -0.1908
     29 C         138.2228  139.2106  167.6510 C.1     1  UNL1        0.1004
     30 C         144.2884  138.7696  163.5579 C.3     1  UNL1        0.0732
     31 C         145.1579  139.9460  163.8896 C.3     1  UNL1        0.0220
     32 C         145.2309  141.1131  162.9502 C.3     1  UNL1        0.0278
     33 C         144.7885  142.4718  163.4065 C.ar    1  UNL1       -0.0221
     34 C         144.4164  143.5176  162.3974 C.ar    1  UNL1       -0.0043
     35 C         143.9741  144.8763  162.8537 C.ar    1  UNL1       -0.0003
     36 C         143.9038  145.1894  164.3189 C.ar    1  UNL1       -0.0000
     37 C         144.2759  144.1437  165.3279 C.ar    1  UNL1       -0.0003
     38 C         144.7183  142.7849  164.8718 C.ar    1  UNL1       -0.0043
@<TRIPOS>BOND
     1    28    29    3
     2    29    22    1
     3    22    23   ar
     4    23    24   ar
     5    24    25   ar
     6    25    21    1
     7    21    16    1
     8    16    17   ar
     9    17    18   ar
    10    18    19   ar
    11    19    20   ar
    12    20    15    1
    13    15     1    1
    14     1    30    1
    15    30    31    1
    16    31    32    1
    17    32    33    1
    18    33    34   ar
    19    34    35   ar
    20    35    36   ar
    21    36    37   ar
    22    37    38   ar
    23     2     1    1
    24     2     3    1
    25     3     4    1
    26     4     5    1
    27     5     8    1
    28     8     9    1
    29     9    10   ar
    30    10    11   ar
    31    11    12   ar
    32    12    13   ar
    33    13    14   ar
    34     5     6   am
    35     6     7    2
    36    25    26   ar
    37    26    27   ar
    38    27    22   ar
    39    20    16   ar
    40    38    33   ar
    41     6     2    1
    42    14     9   ar
@<TRIPOS>MOLECULE
*****
 38 42 0 0 0
SMALL
GASTEIGER

@<TRIPOS>ATOM
      1 N         139.9573  139.7570  160.5223 N.3     1  UNL1       -0.2614
      2 C         141.2166  140.4767  160.1402 C.3     1  UNL1        0.1370
      3 C         141.9116  140.3938  158.8135 C.3     1  UNL1        0.0468
      4 C         143.1267  141.2717  158.8711 C.3     1  UNL1        0.0957
      5 N         143.1825  141.8970  160.2333 N.am    1  UNL1       -0.2743
      6 C         142.0020  141.4057  161.0176 C.2     1  UNL1        0.2404
      7 O         141.6661  141.7782  162.4313 O.2     1  UNL1       -0.2734
      8 C         144.2342  142.8469  160.7249 C.3     1  UNL1        0.1202
      9 C         144.2706  143.2424  162.1714 C.ar    1  UNL1       -0.0023
     10 C         143.6032  144.5087  162.6197 C.ar    1  UNL1       -0.0026
     11 C         143.6396  144.9043  164.0662 C.ar    1  UNL1       -0.0003
     12 C         144.3434  144.0334  165.0644 C.ar    1  UNL1       -0.0000
     13 C         145.0108  142.7671  164.6161 C.ar    1  UNL1       -0.0003
     14 C         144.9744  142.3715  163.1696 C.ar    1  UNL1       -0.0026
     15 C         138.6371  140.4656  160.4502 C.3     1  UNL1        0.1186
     16 N         137.9735  141.8099  162.6632 N.ar    1  UNL1       -0.3070
     17 C         137.8869  143.2598  163.0376 C.ar    1  UNL1        0.1786
     18 N         138.2787  144.0723  161.8390 N.ar    1  UNL1       -0.2226
     19 C         138.6075  143.1244  160.7238 C.ar    1  UNL1        0.1147
     20 C         138.4188  141.7262  161.2332 C.ar    1  UNL1        0.0741
     21 C         137.6683  140.6477  163.5611 C.3     1  UNL1        0.1340
     22 C         139.8717  140.1743  167.4561 C.ar    1  UNL1        0.0684
     23 C         140.2450  141.2791  166.5126 C.ar    1  UNL1        0.0100
     24 C         139.5106  141.4369  165.2143 C.ar    1  UNL1       -0.0017
     25 C         138.4028  140.4899  164.8594 C.ar    1  UNL1        0.0005
     26 C         138.0295  139.3851  165.8028 C.ar    1  UNL1       -0.0017
     27 C         138.7639  139.2273  167.1011 C.ar    1  UNL1        0.0100
     28 N         141.3406  139.8587  170.0527 N.1     1  UNL1       -0.1908
     29 C         140.6062  140.0165  168.7544 C.1     1  UNL1        0.1004
     30 C         140.0181  138.3287  160.9765 C.3     1  UNL1        0.0732
     31 C         139.6701  137.9765  162.3925 C.3     1  UNL1        0.0220
     32 C         140.6400  137.1987  163.2317 C.3     1  UNL1        0.0278
     33 C         141.8372  137.8826  163.8224 C.ar    1  UNL1       -0.0221
     34 C         142.9513  138.3467  162.9316 C.ar    1  UNL1       -0.0043
     35 C         144.1485  139.0306  163.5223 C.ar    1  UNL1       -0.0003
     36 C         144.2317  139.2505  165.0037 C.ar    1  UNL1       -0.0000
     37 C         143.1176  138.7865  165.8945 C.ar    1  UNL1       -0.0003
     38 C         141.9203  138.1026  165.3039 C.ar    1  UNL1       -0.0043
@<TRIPOS>BOND
     1    28    29    3
     2    29    22    1
     3    22    23   ar
     4    23    24   ar
     5    24    25   ar
     6    25    21    1
     7    21    16    1
     8    16    17   ar
     9    17    18   ar
    10    18    19   ar
    11    19    20   ar
    12    20    15    1
    13    15     1    1
    14     1    30    1
    15    30    31    1
    16    31    32    1
    17    32    33    1
    18    33    34   ar
    19    34    35   ar
    20    35    36   ar
    21    36    37   ar
    22    37    38   ar
    23     2     1    1
    24     2     3    1
    25     3     4    1
    26     4     5    1
    27     5     8    1
    28     8     9    1
    29     9    10   ar
    30    10    11   ar
    31    11    12   ar
    32    12    13   ar
    33    13    14   ar
    34     5     6   am
    35     6     7    2
    36    25    26   ar
    37    26    27   ar
    38    27    22   ar
    39    20    16   ar
    40    38    33   ar
    41     6     2    1
    42    14     9   ar
@<TRIPOS>MOLECULE
*****
 38 42 0 0 0
SMALL
GASTEIGER

@<TRIPOS>ATOM
      1 N         142.8795  139.3061  162.6340 N.3     1  UNL1       -0.2614
      2 C         142.3309  139.5927  164.0003 C.3     1  UNL1        0.1370
      3 C         142.3374  138.6516  165.1683 C.3     1  UNL1        0.0468
      4 C         141.6900  139.3481  166.3285 C.3     1  UNL1        0.0957
      5 N         141.2834  140.7196  165.8774 N.am    1  UNL1       -0.2743
      6 C         141.6795  140.8708  164.4386 C.2     1  UNL1        0.2404
      7 O         141.4623  142.0868  163.5875 O.2     1  UNL1       -0.2734
      8 C         140.6006  141.7577  166.7178 C.3     1  UNL1        0.1202
      9 C         141.2652  142.2732  167.9598 C.ar    1  UNL1       -0.0023
     10 C         140.4819  143.0865  168.9471 C.ar    1  UNL1       -0.0026
     11 C         141.1464  143.6021  170.1892 C.ar    1  UNL1       -0.0003
     12 C         142.5943  143.3042  170.4439 C.ar    1  UNL1       -0.0000
     13 C         143.3777  142.4909  169.4566 C.ar    1  UNL1       -0.0003
     14 C         142.7131  141.9753  168.2145 C.ar    1  UNL1       -0.0026
     15 C         142.0175  138.6363  161.6052 C.3     1  UNL1        0.1186
     16 N         139.8192  139.4364  160.3120 N.ar    1  UNL1       -0.3070
     17 C         139.5331  140.4137  159.2106 C.ar    1  UNL1        0.1786
     18 N         140.8319  141.0412  158.7987 N.ar    1  UNL1       -0.2226
     19 C         141.9207  140.4517  159.6456 C.ar    1  UNL1        0.1147
     20 C         141.2948  139.4599  160.5809 C.ar    1  UNL1        0.0741
     21 C         138.8074  138.5852  161.0203 C.3     1  UNL1        0.1340
     22 C         138.3143  138.9177  165.4808 C.ar    1  UNL1        0.0684
     23 C         138.0154  140.0969  164.6032 C.ar    1  UNL1        0.0100
     24 C         138.1798  139.9860  163.1164 C.ar    1  UNL1       -0.0017
     25 C         138.6431  138.6960  162.5071 C.ar    1  UNL1        0.0005
     26 C         138.9420  137.5169  163.3847 C.ar    1  UNL1       -0.0017
     27 C         138.7776  137.6277  164.8716 C.ar    1  UNL1        0.0100
     28 N         137.9856  139.1394  168.4545 N.1     1  UNL1       -0.1908
     29 C         138.1500  139.0286  166.9677 C.1     1  UNL1        0.1004
     30 C         144.2899  139.6893  162.2965 C.3     1  UNL1        0.0732
     31 C         145.2578  140.0269  163.3916 C.3     1  UNL1        0.0220
     32 C         145.8888  141.3868  163.4418 C.3     1  UNL1        0.0278
     33 C         145.0349  142.6025  163.6486 C.ar    1  UNL1       -0.0221
     34 C         144.5829  143.4112  162.4688 C.ar    1  UNL1       -0.0043
     35 C         143.7290  144.6269  162.6756 C.ar    1  UNL1       -0.0003
     36 C         143.3271  145.0341  164.0621 C.ar    1  UNL1       -0.0000
     37 C         143.7790  144.2255  165.2419 C.ar    1  UNL1       -0.0003
     38 C         144.6329  143.0097  165.0352 C.ar    1  UNL1       -0.0043
@<TRIPOS>BOND
     1    28    29    3
     2    29    22    1
     3    22    23   ar
     4    23    24   ar
     5    24    25   ar
     6    25    21    1
     7    21    16    1
     8    16    17   ar
     9    17    18   ar
    10    18    19   ar
    11    19    20   ar
    12    20    15    1
    13    15     1    1
    14     1    30    1
    15    30    31    1
    16    31    32    1
    17    32    33    1
    18    33    34   ar
    19    34    35   ar
    20    35    36   ar
    21    36    37   ar
    22    37    38   ar
    23     2     1    1
    24     2     3    1
    25     3     4    1
    26     4     5    1
    27     5     8    1
    28     8     9    1
    29     9    10   ar
    30    10    11   ar
    31    11    12   ar
    32    12    13   ar
    33    13    14   ar
    34     5     6   am
    35     6     7    2
    36    25    26   ar
    37    26    27   ar
    38    27    22   ar
    39    20    16   ar
    40    38    33   ar
    41     6     2    1
    42    14     9   ar
@<TRIPOS>MOLECULE
*****
 38 42 0 0 0
SMALL
GASTEIGER

@<TRIPOS>ATOM
      1 N         142.8016  143.2458  160.7678 N.3     1  UNL1       -0.2614
      2 C         142.7450  141.7946  160.3925 C.3     1  UNL1        0.1370
      3 C         143.5799  141.1220  159.3433 C.3     1  UNL1        0.0468
      4 C         143.1944  139.6729  159.3029 C.3     1  UNL1        0.0957
      5 N         142.1213  139.4500  160.3269 N.am    1  UNL1       -0.2743
      6 C         141.8436  140.7612  161.0003 C.2     1  UNL1        0.2404
      7 O         140.8405  140.9975  162.0903 O.2     1  UNL1       -0.2734
      8 C         141.4448  138.1449  160.6252 C.3     1  UNL1        0.1202
      9 C         140.8788  137.8883  161.9904 C.ar    1  UNL1       -0.0023
     10 C         139.3929  137.8302  162.1875 C.ar    1  UNL1       -0.0026
     11 C         138.8269  137.5736  163.5528 C.ar    1  UNL1       -0.0003
     12 C         139.7467  137.3751  164.7209 C.ar    1  UNL1       -0.0000
     13 C         141.2326  137.4332  164.5238 C.ar    1  UNL1       -0.0003
     14 C         141.7986  137.6898  163.1585 C.ar    1  UNL1       -0.0026
     15 C         143.5956  143.6806  161.9639 C.3     1  UNL1        0.1186
     16 N         143.2732  142.1852  164.1559 N.ar    1  UNL1       -0.3070
     17 C         144.1107  141.1760  164.8840 C.ar    1  UNL1        0.1786
     18 N         145.4094  141.0330  164.1469 N.ar    1  UNL1       -0.2226
     19 C         145.3745  141.9539  162.9633 C.ar    1  UNL1        0.1147
     20 C         144.0543  142.6660  162.9689 C.ar    1  UNL1        0.0741
     21 C         141.8965  142.6348  164.5462 C.3     1  UNL1        0.1340
     22 C         139.9109  140.8966  168.1913 C.ar    1  UNL1        0.0684
     23 C         140.8934  142.0207  168.3366 C.ar    1  UNL1        0.0100
     24 C         141.5553  142.6001  167.1215 C.ar    1  UNL1       -0.0017
     25 C         141.2346  142.0554  165.7612 C.ar    1  UNL1        0.0005
     26 C         140.2522  140.9313  165.6159 C.ar    1  UNL1       -0.0017
     27 C         139.5903  140.3519  166.8310 C.ar    1  UNL1        0.0100
     28 N         138.5872  139.7378  170.6213 N.1     1  UNL1       -0.1908
     29 C         139.2491  140.3172  169.4063 C.1     1  UNL1        0.1004
     30 C         142.0643  144.2620  159.9471 C.3     1  UNL1        0.0732
     31 C         140.8127  144.8927  160.4816 C.3     1  UNL1        0.0220
     32 C         139.6339  144.0358  160.8368 C.3     1  UNL1        0.0278
     33 C         139.1150  144.0202  162.2441 C.ar    1  UNL1       -0.0221
     34 C         138.0781  143.0151  162.6501 C.ar    1  UNL1       -0.0043
     35 C         137.5591  142.9996  164.0574 C.ar    1  UNL1       -0.0003
     36 C         138.0771  143.9890  165.0587 C.ar    1  UNL1       -0.0000
     37 C         139.1139  144.9940  164.6528 C.ar    1  UNL1       -0.0003
     38 C         139.6329  145.0097  163.2454 C.ar    1  UNL1       -0.0043
@<TRIPOS>BOND
     1    28    29    3
     2    29    22    1
     3    22    23   ar
     4    23    24   ar
     5    24    25   ar
     6    25    21    1
     7    21    16    1
     8    16    17   ar
     9    17    18   ar
    10    18    19   ar
    11    19    20   ar
    12    20    15    1
    13    15     1    1
    14     1    30    1
    15    30    31    1
    16    31    32    1
    17    32    33    1
    18    33    34   ar
    19    34    35   ar
    20    35    36   ar
    21    36    37   ar
    22    37    38   ar
    23     2     1    1
    24     2     3    1
    25     3     4    1
    26     4     5    1
    27     5     8    1
    28     8     9    1
    29     9    10   ar
    30    10    11   ar
    31    11    12   ar
    32    12    13   ar
    33    13    14   ar
    34     5     6   am
    35     6     7    2
    36    25    26   ar
    37    26    27   ar
    38    27    22   ar
    39    20    16   ar
    40    38    33   ar
    41     6     2    1
    42    14     9   ar
@<TRIPOS>MOLECULE
*****
 38 42 0 0 0
SMALL
GASTEIGER

@<TRIPOS>ATOM
      1 N         138.8968  141.8990  160.2896 N.3     1  UNL1       -0.2614
      2 C         140.2477  142.4933  160.0216 C.3     1  UNL1        0.1370
      3 C         140.5696  143.5122  158.9689 C.3     1  UNL1        0.0468
      4 C         142.0348  143.8216  159.0559 C.3     1  UNL1        0.0957
      5 N         142.6184  142.9939  160.1623 N.am    1  UNL1       -0.2743
      6 C         141.5139  142.1730  160.7591 C.2     1  UNL1        0.2404
      7 O         141.6516  141.2021  161.8943 O.2     1  UNL1       -0.2734
      8 C         144.0544  142.9881  160.5958 C.3     1  UNL1        0.1202
      9 C         144.3972  142.9255  162.0548 C.ar    1  UNL1       -0.0023
     10 C         145.2531  141.8098  162.5768 C.ar    1  UNL1       -0.0026
     11 C         145.5959  141.7471  164.0359 C.ar    1  UNL1       -0.0003
     12 C         145.0828  142.8002  164.9728 C.ar    1  UNL1       -0.0000
     13 C         144.2268  143.9159  164.4507 C.ar    1  UNL1       -0.0003
     14 C         143.8840  143.9786  162.9917 C.ar    1  UNL1       -0.0026
     15 C         138.0053  142.5036  161.3337 C.3     1  UNL1        0.1186
     16 N         139.1250  142.7464  163.7487 N.ar    1  UNL1       -0.3070
     17 C         139.6227  143.8941  164.5765 C.ar    1  UNL1        0.1786
     18 N         139.4046  145.1569  163.7968 N.ar    1  UNL1       -0.2226
     19 C         138.7722  144.7897  162.4871 C.ar    1  UNL1        0.1147
     20 C         138.5994  143.3000  162.4574 C.ar    1  UNL1        0.0741
     21 C         139.1488  141.2994  164.1429 C.3     1  UNL1        0.1340
     22 C         141.5527  139.9784  167.7103 C.ar    1  UNL1        0.0684
     23 C         142.2501  140.4229  166.4589 C.ar    1  UNL1        0.0100
     24 C         141.4488  140.8632  165.2698 C.ar    1  UNL1       -0.0017
     25 C         139.9501  140.8590  165.3320 C.ar    1  UNL1        0.0005
     26 C         139.2527  140.4145  166.5834 C.ar    1  UNL1       -0.0017
     27 C         140.0540  139.9742  167.7725 C.ar    1  UNL1        0.0100
     28 N         143.1553  139.0977  170.0885 N.1     1  UNL1       -0.1908
     29 C         142.3540  139.5380  168.8994 C.1     1  UNL1        0.1004
     30 C         138.4374  140.7004  159.5137 C.3     1  UNL1        0.0732
     31 C         138.3352  139.3644  160.1881 C.3     1  UNL1        0.0220
     32 C         139.5790  138.5925  160.5153 C.3     1  UNL1        0.0278
     33 C         139.8360  138.1466  161.9243 C.ar    1  UNL1       -0.0221
     34 C         141.2387  137.8740  162.3806 C.ar    1  UNL1       -0.0043
     35 C         141.4957  137.4281  163.7896 C.ar    1  UNL1       -0.0003
     36 C         140.3501  137.2548  164.7422 C.ar    1  UNL1       -0.0000
     37 C         138.9475  137.5274  164.2858 C.ar    1  UNL1       -0.0003
     38 C         138.6904  137.9733  162.8769 C.ar    1  UNL1       -0.0043
@<TRIPOS>BOND
     1    28    29    3
     2    29    22    1
     3    22    23   ar
     4    23    24   ar
     5    24    25   ar
     6    25    21    1
     7    21    16    1
     8    16    17   ar
     9    17    18   ar
    10    18    19   ar
    11    19    20   ar
    12    20    15    1
    13    15     1    1
    14     1    30    1
    15    30    31    1
    16    31    32    1
    17    32    33    1
    18    33    34   ar
    19    34    35   ar
    20    35    36   ar
    21    36    37   ar
    22    37    38   ar
    23     2     1    1
    24     2     3    1
    25     3     4    1
    26     4     5    1
    27     5     8    1
    28     8     9    1
    29     9    10   ar
    30    10    11   ar
    31    11    12   ar
    32    12    13   ar
    33    13    14   ar
    34     5     6   am
    35     6     7    2
    36    25    26   ar
    37    26    27   ar
    38    27    22   ar
    39    20    16   ar
    40    38    33   ar
    41     6     2    1
    42    14     9   ar
