@<TRIPOS>MOLECULE
*****
 31 33 0 0 0
SMALL
GASTEIGER

@<TRIPOS>ATOM
      1 C         143.1609  142.6862  164.3698 C.ar    1  UNL1       -0.0207
      2 C         141.8673  143.3943  164.6440 C.ar    1  UNL1       -0.0042
      3 C         140.9337  142.8705  165.6946 C.ar    1  UNL1       -0.0003
      4 C         141.2936  141.6386  166.4711 C.ar    1  UNL1        0.0012
      5 C         142.5871  140.9305  166.1969 C.ar    1  UNL1       -0.0003
      6 C         143.5208  141.4543  165.1462 C.ar    1  UNL1       -0.0042
      7 C         140.3598  141.1148  167.5218 C.ar    1  UNL1        0.0158
      8 C         139.3685  140.0432  167.1773 C.ar    1  UNL1        0.0781
      9 N         138.4347  139.5194  168.2280 N.ar    1  UNL1       -0.2922
     10 C         137.4434  138.4477  167.8835 C.3     1  UNL1        0.1336
     11 C         138.4925  140.0673  169.6231 C.ar    1  UNL1        0.2608
     12 O         137.5588  139.5436  170.6738 O.2     1  UNL1       -0.2670
     13 C         139.4839  141.1390  169.9676 C.ar    1  UNL1        0.0589
     14 C         140.4176  141.6627  168.9169 C.ar    1  UNL1        0.0131
     15 C         141.4090  142.7344  169.2614 C.3     1  UNL1        0.1638
     16 O         141.0608  143.7789  170.2802 O.3     1  UNL1       -0.3772
     17 H         140.3365  144.3297  169.9440 H       1  UNL1        0.2109
     18 C         144.1093  144.6735  162.9910 C.3     1  UNL1        0.0066
     19 C         144.0946  143.2100  163.3191 C.3     1  UNL1        0.0454
     20 C         145.0136  142.2701  162.5965 C.3     1  UNL1        0.1325
     21 N         146.3203  141.8735  163.2173 N.3     1  UNL1       -0.3148
     22 H         146.4198  142.3326  164.1227 H       1  UNL1        0.1192
     23 H         147.0867  142.1565  162.6066 H       1  UNL1        0.1192
     24 C         144.6260  141.7268  161.2532 C.2     1  UNL1        0.2401
     25 O         144.7150  142.6000  160.0368 O.2     1  UNL1       -0.2734
     26 N         144.1492  140.3102  161.1262 N.am    1  UNL1       -0.2756
     27 C         144.0085  139.3235  162.2472 C.3     1  UNL1        0.0964
     28 C         143.5018  138.0351  161.6697 C.3     1  UNL1        0.0585
     29 C         143.3294  138.2256  160.1919 C.3     1  UNL1        0.1824
     30 F         142.8424  137.1916  159.2205 F       1  UNL1       -0.2354
     31 C         143.7296  139.6317  159.8560 C.3     1  UNL1        0.1286
@<TRIPOS>BOND
     1    19    18    1
     2    19     1    1
     3     1     2   ar
     4     2     3   ar
     5     3     4   ar
     6     4     7    1
     7     7     8   ar
     8     8     9   ar
     9     9    10    1
    10     9    11   ar
    11    11    12    2
    12    11    13   ar
    13    13    14   ar
    14    14    15    1
    15    15    16    1
    16     4     5   ar
    17     5     6   ar
    18    19    20    1
    19    20    21    1
    20    20    24    1
    21    24    25    2
    22    24    26   am
    23    26    27    1
    24    27    28    1
    25    28    29    1
    26    29    30    1
    27    29    31    1
    28     6     1   ar
    29    31    26    1
    30    14     7   ar
    31    16    17    1
    32    21    22    1
    33    21    23    1
@<TRIPOS>MOLECULE
*****
 31 33 0 0 0
SMALL
GASTEIGER

@<TRIPOS>ATOM
      1 C         142.9270  139.7733  163.8065 C.ar    1  UNL1       -0.0207
      2 C         143.2964  138.9563  165.0091 C.ar    1  UNL1       -0.0042
      3 C         142.8639  139.3963  166.3763 C.ar    1  UNL1       -0.0003
      4 C         142.0619  140.6532  166.5409 C.ar    1  UNL1        0.0012
      5 C         141.6925  141.4701  165.3384 C.ar    1  UNL1       -0.0003
      6 C         142.1251  141.0302  163.9712 C.ar    1  UNL1       -0.0042
      7 C         141.6294  141.0931  167.9082 C.ar    1  UNL1        0.0158
      8 C         142.5168  141.9852  168.7247 C.ar    1  UNL1        0.0781
      9 N         142.0842  142.4251  170.0920 N.ar    1  UNL1       -0.2922
     10 C         142.9716  143.3172  170.9086 C.3     1  UNL1        0.1336
     11 C         140.7643  141.9730  170.6427 C.ar    1  UNL1        0.2608
     12 O         140.3317  142.4129  172.0100 O.2     1  UNL1       -0.2670
     13 C         139.8768  141.0809  169.8261 C.ar    1  UNL1        0.0589
     14 C         140.3094  140.6410  168.4589 C.ar    1  UNL1        0.0131
     15 C         139.4220  139.7489  167.6423 C.3     1  UNL1        0.1638
     16 O         138.2123  139.1194  168.2670 O.3     1  UNL1       -0.3772
     17 H         138.4916  138.4895  168.9497 H       1  UNL1        0.2109
     18 C         144.4323  140.0891  161.7126 C.3     1  UNL1        0.0066
     19 C         143.3596  139.3333  162.4392 C.3     1  UNL1        0.0454
     20 C         142.7193  138.1376  161.7986 C.3     1  UNL1        0.1325
     21 N         143.5369  137.2195  160.9391 N.3     1  UNL1       -0.3148
     22 H         144.4988  137.5567  160.9004 H       1  UNL1        0.1192
     23 H         143.1460  137.1977  159.9972 H       1  UNL1        0.1192
     24 C         141.2616  137.8600  162.0175 C.2     1  UNL1        0.2401
     25 O         140.8375  136.8106  163.0019 O.2     1  UNL1       -0.2734
     26 N         140.2280  138.6317  161.2521 N.am    1  UNL1       -0.2756
     27 C         140.4993  139.7052  160.2401 C.3     1  UNL1        0.0964
     28 C         139.1805  140.2024  159.7267 C.3     1  UNL1        0.0585
     29 C         138.0940  139.4363  160.4215 C.3     1  UNL1        0.1824
     30 F         136.6192  139.6103  160.2106 F       1  UNL1       -0.2354
     31 C         138.7414  138.4656  161.3642 C.3     1  UNL1        0.1286
@<TRIPOS>BOND
     1    19    18    1
     2    19     1    1
     3     1     2   ar
     4     2     3   ar
     5     3     4   ar
     6     4     7    1
     7     7     8   ar
     8     8     9   ar
     9     9    10    1
    10     9    11   ar
    11    11    12    2
    12    11    13   ar
    13    13    14   ar
    14    14    15    1
    15    15    16    1
    16     4     5   ar
    17     5     6   ar
    18    19    20    1
    19    20    21    1
    20    20    24    1
    21    24    25    2
    22    24    26   am
    23    26    27    1
    24    27    28    1
    25    28    29    1
    26    29    30    1
    27    29    31    1
    28     6     1   ar
    29    31    26    1
    30    14     7   ar
    31    16    17    1
    32    21    22    1
    33    21    23    1
@<TRIPOS>MOLECULE
*****
 31 33 0 0 0
SMALL
GASTEIGER

@<TRIPOS>ATOM
      1 C         143.2808  142.7478  164.2247 C.ar    1  UNL1       -0.0207
      2 C         141.9870  143.4206  164.5759 C.ar    1  UNL1       -0.0042
      3 C         141.1456  142.8888  165.6980 C.ar    1  UNL1       -0.0003
      4 C         141.5980  141.6842  166.4689 C.ar    1  UNL1        0.0012
      5 C         142.8918  141.0114  166.1177 C.ar    1  UNL1       -0.0003
      6 C         143.7332  141.5432  164.9956 C.ar    1  UNL1       -0.0042
      7 C         140.7565  141.1524  167.5911 C.ar    1  UNL1        0.0158
      8 C         141.1189  141.4637  169.0129 C.ar    1  UNL1        0.0781
      9 N         140.2775  140.9319  170.1351 N.ar    1  UNL1       -0.2922
     10 C         140.6399  141.2432  171.5569 C.3     1  UNL1        0.1336
     11 C         139.0736  140.0888  169.8353 C.ar    1  UNL1        0.2608
     12 O         138.2321  139.5571  170.9574 O.2     1  UNL1       -0.2670
     13 C         138.7112  139.7776  168.4133 C.ar    1  UNL1        0.0589
     14 C         139.5526  140.3093  167.2913 C.ar    1  UNL1        0.0131
     15 C         139.1902  139.9981  165.8693 C.3     1  UNL1        0.1638
     16 O         137.7633  139.7148  165.5038 O.3     1  UNL1       -0.3772
     17 H         137.4784  138.8904  165.9282 H       1  UNL1        0.2109
     18 C         144.1089  144.7454  162.7845 C.3     1  UNL1        0.0066
     19 C         144.1223  143.2796  163.1025 C.3     1  UNL1        0.0454
     20 C         144.9772  142.3455  162.2984 C.3     1  UNL1        0.1325
     21 N         146.3305  141.9432  162.8053 N.3     1  UNL1       -0.3148
     22 H         146.5052  142.3947  163.7032 H       1  UNL1        0.1192
     23 H         147.0438  142.2311  162.1355 H       1  UNL1        0.1192
     24 C         144.4789  141.8137  160.9873 C.2     1  UNL1        0.2401
     25 O         144.4039  142.7163  159.7916 O.2     1  UNL1       -0.2734
     26 N         144.0556  140.3794  160.8720 N.am    1  UNL1       -0.2756
     27 C         144.0745  139.3630  161.9750 C.3     1  UNL1        0.0964
     28 C         143.5696  138.0650  161.4181 C.3     1  UNL1        0.0585
     29 C         143.2386  138.2791  159.9708 C.3     1  UNL1        0.1824
     30 F         142.7016  137.2445  159.0268 F       1  UNL1       -0.2354
     31 C         143.5390  139.7094  159.6333 C.3     1  UNL1        0.1286
@<TRIPOS>BOND
     1    19    18    1
     2    19     1    1
     3     1     2   ar
     4     2     3   ar
     5     3     4   ar
     6     4     7    1
     7     7     8   ar
     8     8     9   ar
     9     9    10    1
    10     9    11   ar
    11    11    12    2
    12    11    13   ar
    13    13    14   ar
    14    14    15    1
    15    15    16    1
    16     4     5   ar
    17     5     6   ar
    18    19    20    1
    19    20    21    1
    20    20    24    1
    21    24    25    2
    22    24    26   am
    23    26    27    1
    24    27    28    1
    25    28    29    1
    26    29    30    1
    27    29    31    1
    28     6     1   ar
    29    31    26    1
    30    14     7   ar
    31    16    17    1
    32    21    22    1
    33    21    23    1
@<TRIPOS>MOLECULE
*****
 31 33 0 0 0
SMALL
GASTEIGER

@<TRIPOS>ATOM
      1 C         141.9649  139.2787  163.6840 C.ar    1  UNL1       -0.0207
      2 C         140.9444  140.3512  163.9255 C.ar    1  UNL1       -0.0042
      3 C         140.6756  140.8301  165.3213 C.ar    1  UNL1       -0.0003
      4 C         141.4273  140.2364  166.4757 C.ar    1  UNL1        0.0012
      5 C         142.4478  139.1639  166.2343 C.ar    1  UNL1       -0.0003
      6 C         142.7165  138.6851  164.8384 C.ar    1  UNL1       -0.0042
      7 C         141.1585  140.7154  167.8716 C.ar    1  UNL1        0.0158
      8 C         142.1738  141.5593  168.5835 C.ar    1  UNL1        0.0781
      9 N         141.9049  142.0382  169.9794 N.ar    1  UNL1       -0.2922
     10 C         142.9202  142.8821  170.6914 C.3     1  UNL1        0.1336
     11 C         140.6208  141.6732  170.6633 C.ar    1  UNL1        0.2608
     12 O         140.3519  142.1520  172.0591 O.2     1  UNL1       -0.2670
     13 C         139.6055  140.8292  169.9513 C.ar    1  UNL1        0.0589
     14 C         139.8743  140.3503  168.5555 C.ar    1  UNL1        0.0131
     15 C         138.8590  139.5063  167.8434 C.3     1  UNL1        0.1638
     16 O         137.7067  138.9187  168.6030 O.3     1  UNL1       -0.3772
     17 H         138.0385  138.2689  169.2422 H       1  UNL1        0.2109
     18 C         141.4705  137.6327  161.7356 C.3     1  UNL1        0.0066
     19 C         142.2337  138.7998  162.2882 C.3     1  UNL1        0.0454
     20 C         143.2658  139.4880  161.4448 C.3     1  UNL1        0.1325
     21 N         144.4752  138.7346  160.9761 N.3     1  UNL1       -0.3148
     22 H         144.4330  137.7755  161.3206 H       1  UNL1        0.1192
     23 H         145.3170  139.1871  161.3325 H       1  UNL1        0.1192
     24 C         143.0884  140.9296  161.0703 C.2     1  UNL1        0.2401
     25 O         142.4534  141.2916  159.7604 O.2     1  UNL1       -0.2734
     26 N         143.5462  142.0093  162.0056 N.am    1  UNL1       -0.2756
     27 C         144.1947  141.8016  163.3421 C.3     1  UNL1        0.0964
     28 C         144.4850  143.1502  163.9311 C.3     1  UNL1        0.0585
     29 C         144.0160  144.1914  162.9586 C.3     1  UNL1        0.1824
     30 F         144.1106  145.6770  163.1437 F       1  UNL1       -0.2354
     31 C         143.4357  143.4863  161.7686 C.3     1  UNL1        0.1286
@<TRIPOS>BOND
     1    19    18    1
     2    19     1    1
     3     1     2   ar
     4     2     3   ar
     5     3     4   ar
     6     4     7    1
     7     7     8   ar
     8     8     9   ar
     9     9    10    1
    10     9    11   ar
    11    11    12    2
    12    11    13   ar
    13    13    14   ar
    14    14    15    1
    15    15    16    1
    16     4     5   ar
    17     5     6   ar
    18    19    20    1
    19    20    21    1
    20    20    24    1
    21    24    25    2
    22    24    26   am
    23    26    27    1
    24    27    28    1
    25    28    29    1
    26    29    30    1
    27    29    31    1
    28     6     1   ar
    29    31    26    1
    30    14     7   ar
    31    16    17    1
    32    21    22    1
    33    21    23    1
@<TRIPOS>MOLECULE
*****
 31 33 0 0 0
SMALL
GASTEIGER

@<TRIPOS>ATOM
      1 C         140.2630  144.3688  163.1298 C.ar    1  UNL1       -0.0207
      2 C         141.5163  143.9531  163.8414 C.ar    1  UNL1       -0.0042
      3 C         141.4291  143.1854  165.1271 C.ar    1  UNL1       -0.0003
      4 C         140.0887  142.8334  165.7011 C.ar    1  UNL1        0.0012
      5 C         138.8355  143.2491  164.9894 C.ar    1  UNL1       -0.0003
      6 C         138.9226  144.0168  163.7037 C.ar    1  UNL1       -0.0042
      7 C         140.0016  142.0656  166.9868 C.ar    1  UNL1        0.0158
      8 C         140.3536  142.7321  168.2836 C.ar    1  UNL1        0.0781
      9 N         140.2665  141.9643  169.5694 N.ar    1  UNL1       -0.2922
     10 C         140.6186  142.6308  170.8662 C.3     1  UNL1        0.1336
     11 C         139.8273  140.5301  169.5582 C.ar    1  UNL1        0.2608
     12 O         139.7402  139.7624  170.8438 O.2     1  UNL1       -0.2670
     13 C         139.4752  139.8636  168.2613 C.ar    1  UNL1        0.0589
     14 C         139.5624  140.6314  166.9756 C.ar    1  UNL1        0.0131
     15 C         139.2103  139.9649  165.6787 C.3     1  UNL1        0.1638
     16 O         137.7773  139.8808  165.2435 O.3     1  UNL1       -0.3772
     17 H         137.2859  139.3122  165.8568 H       1  UNL1        0.2109
     18 C         139.6884  146.4773  161.7248 C.3     1  UNL1        0.0066
     19 C         140.3502  145.1365  161.8440 C.3     1  UNL1        0.0454
     20 C         141.0991  144.5634  160.6776 C.3     1  UNL1        0.1325
     21 N         141.8423  145.4722  159.7438 N.3     1  UNL1       -0.3148
     22 H         141.7314  146.4388  160.0501 H       1  UNL1        0.1192
     23 H         141.4687  145.3695  158.8003 H       1  UNL1        0.1192
     24 C         141.1048  143.0816  160.4448 C.2     1  UNL1        0.2401
     25 O         139.8692  142.3968  159.9404 O.2     1  UNL1       -0.2734
     26 N         142.3461  142.2846  160.7165 N.am    1  UNL1       -0.2756
     27 C         143.6502  142.8280  161.2205 C.3     1  UNL1        0.0964
     28 C         144.6114  141.6834  161.3473 C.3     1  UNL1        0.0585
     29 C         143.9013  140.4325  160.9218 C.3     1  UNL1        0.1824
     30 F         144.4882  139.0524  160.8914 F       1  UNL1       -0.2354
     31 C         142.5013  140.8041  160.5319 C.3     1  UNL1        0.1286
@<TRIPOS>BOND
     1    19    18    1
     2    19     1    1
     3     1     2   ar
     4     2     3   ar
     5     3     4   ar
     6     4     7    1
     7     7     8   ar
     8     8     9   ar
     9     9    10    1
    10     9    11   ar
    11    11    12    2
    12    11    13   ar
    13    13    14   ar
    14    14    15    1
    15    15    16    1
    16     4     5   ar
    17     5     6   ar
    18    19    20    1
    19    20    21    1
    20    20    24    1
    21    24    25    2
    22    24    26   am
    23    26    27    1
    24    27    28    1
    25    28    29    1
    26    29    30    1
    27    29    31    1
    28     6     1   ar
    29    31    26    1
    30    14     7   ar
    31    16    17    1
    32    21    22    1
    33    21    23    1
@<TRIPOS>MOLECULE
*****
 31 33 0 0 0
SMALL
GASTEIGER

@<TRIPOS>ATOM
      1 C         140.7536  142.7752  163.1258 C.ar    1  UNL1       -0.0207
      2 C         139.8109  143.4827  164.0535 C.ar    1  UNL1       -0.0042
      3 C         139.7891  143.1315  165.5116 C.ar    1  UNL1       -0.0003
      4 C         140.7098  142.0727  166.0419 C.ar    1  UNL1        0.0012
      5 C         141.6524  141.3652  165.1142 C.ar    1  UNL1       -0.0003
      6 C         141.6743  141.7165  163.6561 C.ar    1  UNL1       -0.0042
      7 C         140.6879  141.7214  167.5001 C.ar    1  UNL1        0.0158
      8 C         141.5381  142.4883  168.4692 C.ar    1  UNL1        0.0781
      9 N         141.5162  142.1370  169.9273 N.ar    1  UNL1       -0.2922
     10 C         142.3664  142.9038  170.8964 C.3     1  UNL1        0.1336
     11 C         140.6440  141.0189  170.4164 C.ar    1  UNL1        0.2608
     12 O         140.6220  140.6676  171.8745 O.2     1  UNL1       -0.2670
     13 C         139.7937  140.2521  169.4473 C.ar    1  UNL1        0.0589
     14 C         139.8157  140.6034  167.9892 C.ar    1  UNL1        0.0131
     15 C         138.9654  139.8365  167.0201 C.3     1  UNL1        0.1638
     16 O         138.0360  138.7699  167.5186 O.3     1  UNL1       -0.3772
     17 H         138.5531  138.0400  167.8938 H       1  UNL1        0.2109
     18 C         140.2283  142.1637  160.6559 C.3     1  UNL1        0.0066
     19 C         140.7755  143.1265  161.6676 C.3     1  UNL1        0.0454
     20 C         141.3447  144.4406  161.2212 C.3     1  UNL1        0.1325
     21 N         142.6788  144.8937  161.7360 N.3     1  UNL1       -0.3148
     22 H         143.0536  144.1914  162.3737 H       1  UNL1        0.1192
     23 H         142.5694  145.7787  162.2312 H       1  UNL1        0.1192
     24 C         140.5799  145.3014  160.2600 C.2     1  UNL1        0.2401
     25 O         139.4262  146.1271  160.7471 O.2     1  UNL1       -0.2734
     26 N         140.9688  145.3367  158.8117 N.am    1  UNL1       -0.2756
     27 C         142.0935  144.5697  158.1819 C.3     1  UNL1        0.0964
     28 C         142.1211  144.9041  156.7199 C.3     1  UNL1        0.0585
     29 C         141.0135  145.8778  156.4461 C.3     1  UNL1        0.1824
     30 F         140.6770  146.4787  155.1136 F       1  UNL1       -0.2354
     31 C         140.3013  146.1452  157.7390 C.3     1  UNL1        0.1286
@<TRIPOS>BOND
     1    19    18    1
     2    19     1    1
     3     1     2   ar
     4     2     3   ar
     5     3     4   ar
     6     4     7    1
     7     7     8   ar
     8     8     9   ar
     9     9    10    1
    10     9    11   ar
    11    11    12    2
    12    11    13   ar
    13    13    14   ar
    14    14    15    1
    15    15    16    1
    16     4     5   ar
    17     5     6   ar
    18    19    20    1
    19    20    21    1
    20    20    24    1
    21    24    25    2
    22    24    26   am
    23    26    27    1
    24    27    28    1
    25    28    29    1
    26    29    30    1
    27    29    31    1
    28     6     1   ar
    29    31    26    1
    30    14     7   ar
    31    16    17    1
    32    21    22    1
    33    21    23    1
@<TRIPOS>MOLECULE
*****
 31 33 0 0 0
SMALL
GASTEIGER

@<TRIPOS>ATOM
      1 C         143.2366  140.9782  163.4793 C.ar    1  UNL1       -0.0207
      2 C         142.2932  142.0986  163.8027 C.ar    1  UNL1       -0.0042
      3 C         141.8327  142.3071  165.2149 C.ar    1  UNL1       -0.0003
      4 C         142.3155  141.3953  166.3037 C.ar    1  UNL1        0.0012
      5 C         143.2589  140.2749  165.9802 C.ar    1  UNL1       -0.0003
      6 C         143.7194  140.0663  164.5680 C.ar    1  UNL1       -0.0042
      7 C         141.8549  141.6038  167.7159 C.ar    1  UNL1        0.0158
      8 C         142.6549  142.4669  168.6460 C.ar    1  UNL1        0.0781
      9 N         142.1942  142.6755  170.0583 N.ar    1  UNL1       -0.2922
     10 C         142.9942  143.5386  170.9883 C.3     1  UNL1        0.1336
     11 C         140.9336  142.0210  170.5404 C.ar    1  UNL1        0.2608
     12 O         140.4730  142.2295  171.9526 O.2     1  UNL1       -0.2670
     13 C         140.1337  141.1578  169.6102 C.ar    1  UNL1        0.0589
     14 C         140.5943  140.9493  168.1981 C.ar    1  UNL1        0.0131
     15 C         139.7943  140.0862  167.2679 C.3     1  UNL1        0.1638
     16 O         138.6464  139.2777  167.7959 O.3     1  UNL1       -0.3772
     17 H         138.9812  138.5975  168.4010 H       1  UNL1        0.2109
     18 C         144.4736  141.8440  161.3649 C.3     1  UNL1        0.0066
     19 C         143.6972  140.7696  162.0670 C.3     1  UNL1        0.0454
     20 C         143.3814  139.4866  161.3569 C.3     1  UNL1        0.1325
     21 N         144.3686  138.3573  161.3740 N.3     1  UNL1       -0.3148
     22 H         145.1915  138.6331  161.9098 H       1  UNL1        0.1192
     23 H         144.6448  138.1328  160.4181 H       1  UNL1        0.1192
     24 C         142.0785  139.3329  160.6298 C.2     1  UNL1        0.2401
     25 O         141.9818  139.6996  159.1784 O.2     1  UNL1       -0.2734
     26 N         140.8723  138.8126  161.3539 N.am    1  UNL1       -0.2756
     27 C         140.8170  138.4073  162.7970 C.3     1  UNL1        0.0964
     28 C         139.4202  137.9505  163.0971 C.3     1  UNL1        0.0585
     29 C         138.6121  138.0734  161.8394 C.3     1  UNL1        0.1824
     30 F         137.1613  137.7247  161.6859 F       1  UNL1       -0.2354
     31 C         139.5096  138.6062  160.7620 C.3     1  UNL1        0.1286
@<TRIPOS>BOND
     1    19    18    1
     2    19     1    1
     3     1     2   ar
     4     2     3   ar
     5     3     4   ar
     6     4     7    1
     7     7     8   ar
     8     8     9   ar
     9     9    10    1
    10     9    11   ar
    11    11    12    2
    12    11    13   ar
    13    13    14   ar
    14    14    15    1
    15    15    16    1
    16     4     5   ar
    17     5     6   ar
    18    19    20    1
    19    20    21    1
    20    20    24    1
    21    24    25    2
    22    24    26   am
    23    26    27    1
    24    27    28    1
    25    28    29    1
    26    29    30    1
    27    29    31    1
    28     6     1   ar
    29    31    26    1
    30    14     7   ar
    31    16    17    1
    32    21    22    1
    33    21    23    1
@<TRIPOS>MOLECULE
*****
 31 33 0 0 0
SMALL
GASTEIGER

@<TRIPOS>ATOM
      1 C         139.1296  139.7131  163.7245 C.ar    1  UNL1       -0.0207
      2 C         138.3149  139.7506  164.9834 C.ar    1  UNL1       -0.0042
      3 C         138.9103  140.2996  166.2459 C.ar    1  UNL1       -0.0003
      4 C         140.3204  140.8110  166.2497 C.ar    1  UNL1        0.0012
      5 C         141.1351  140.7735  164.9908 C.ar    1  UNL1       -0.0003
      6 C         140.5397  140.2246  163.7282 C.ar    1  UNL1       -0.0042
      7 C         140.9157  141.3600  167.5123 C.ar    1  UNL1        0.0158
      8 C         140.3444  142.5999  168.1337 C.ar    1  UNL1        0.0781
      9 N         140.9398  143.1489  169.3963 N.ar    1  UNL1       -0.2922
     10 C         140.3684  144.3888  170.0176 C.3     1  UNL1        0.1336
     11 C         142.1065  142.4579  170.0376 C.ar    1  UNL1        0.2608
     12 O         142.7019  143.0067  171.3002 O.2     1  UNL1       -0.2670
     13 C         142.6778  141.2178  169.4162 C.ar    1  UNL1        0.0589
     14 C         142.0825  140.6690  168.1536 C.ar    1  UNL1        0.0131
     15 C         142.6538  139.4290  167.5322 C.3     1  UNL1        0.1638
     16 O         143.3656  138.4218  168.3861 O.3     1  UNL1       -0.3772
     17 H         144.1783  138.8151  168.7405 H       1  UNL1        0.2109
     18 C         138.4213  137.6810  162.2690 C.3     1  UNL1        0.0066
     19 C         138.5343  139.1642  162.4619 C.3     1  UNL1        0.0454
     20 C         138.0518  140.0985  161.3921 C.3     1  UNL1        0.1325
     21 N         136.7064  139.8878  160.7631 N.3     1  UNL1       -0.3148
     22 H         136.2607  139.0703  161.1796 H       1  UNL1        0.1192
     23 H         136.8194  139.7394  159.7603 H       1  UNL1        0.1192
     24 C         138.9147  141.2435  160.9514 C.2     1  UNL1        0.2401
     25 O         139.9014  141.0538  159.8376 O.2     1  UNL1       -0.2734
     26 N         138.7911  142.5783  161.6245 N.am    1  UNL1       -0.2756
     27 C         137.8545  142.9167  162.7462 C.3     1  UNL1        0.0964
     28 C         138.0668  144.3566  163.1091 C.3     1  UNL1        0.0585
     29 C         139.1347  144.9082  162.2115 C.3     1  UNL1        0.1824
     30 F         139.6623  146.3122  162.2285 F       1  UNL1       -0.2354
     31 C         139.5822  143.8091  161.2940 C.3     1  UNL1        0.1286
@<TRIPOS>BOND
     1    19    18    1
     2    19     1    1
     3     1     2   ar
     4     2     3   ar
     5     3     4   ar
     6     4     7    1
     7     7     8   ar
     8     8     9   ar
     9     9    10    1
    10     9    11   ar
    11    11    12    2
    12    11    13   ar
    13    13    14   ar
    14    14    15    1
    15    15    16    1
    16     4     5   ar
    17     5     6   ar
    18    19    20    1
    19    20    21    1
    20    20    24    1
    21    24    25    2
    22    24    26   am
    23    26    27    1
    24    27    28    1
    25    28    29    1
    26    29    30    1
    27    29    31    1
    28     6     1   ar
    29    31    26    1
    30    14     7   ar
    31    16    17    1
    32    21    22    1
    33    21    23    1
@<TRIPOS>MOLECULE
*****
 31 33 0 0 0
SMALL
GASTEIGER

@<TRIPOS>ATOM
      1 C         140.3771  144.3194  163.1871 C.ar    1  UNL1       -0.0207
      2 C         141.6132  143.8261  163.8788 C.ar    1  UNL1       -0.0042
      3 C         141.4988  143.0596  165.1631 C.ar    1  UNL1       -0.0003
      4 C         140.1481  142.7865  165.7557 C.ar    1  UNL1        0.0012
      5 C         138.9120  143.2799  165.0640 C.ar    1  UNL1       -0.0003
      6 C         139.0264  144.0463  163.7798 C.ar    1  UNL1       -0.0042
      7 C         140.0337  142.0201  167.0401 C.ar    1  UNL1        0.0158
      8 C         140.3960  142.6757  168.3396 C.ar    1  UNL1        0.0781
      9 N         140.2816  141.9092  169.6239 N.ar    1  UNL1       -0.2922
     10 C         140.6439  142.5649  170.9234 C.3     1  UNL1        0.1336
     11 C         139.8048  140.4871  169.6087 C.ar    1  UNL1        0.2608
     12 O         139.6904  139.7206  170.8929 O.2     1  UNL1       -0.2670
     13 C         139.4425  139.8315  168.3091 C.ar    1  UNL1        0.0589
     14 C         139.5569  140.5979  167.0248 C.ar    1  UNL1        0.0131
     15 C         139.1946  139.9423  165.7252 C.3     1  UNL1        0.1638
     16 O         137.7858  140.0154  165.2154 O.3     1  UNL1       -0.3772
     17 H         137.1998  139.5256  165.8133 H       1  UNL1        0.2109
     18 C         139.7762  146.3948  161.7442 C.3     1  UNL1        0.0066
     19 C         140.4915  145.0859  161.9028 C.3     1  UNL1        0.0454
     20 C         141.3212  144.5434  160.7770 C.3     1  UNL1        0.1325
     21 N         141.8622  145.4709  159.7295 N.3     1  UNL1       -0.3148
     22 H         141.5708  146.4259  159.9377 H       1  UNL1        0.1192
     23 H         141.5028  145.1975  158.8149 H       1  UNL1        0.1192
     24 C         141.6100  143.0736  160.6988 C.2     1  UNL1        0.2401
     25 O         142.9939  142.5653  160.9756 O.2     1  UNL1       -0.2734
     26 N         140.5149  142.1120  160.3438 N.am    1  UNL1       -0.2756
     27 C         139.0899  142.4706  160.0424 C.3     1  UNL1        0.0964
     28 C         138.3468  141.2032  159.7402 C.3     1  UNL1        0.0585
     29 C         139.3125  140.0611  159.8548 C.3     1  UNL1        0.1824
     30 F         138.9942  138.6118  159.6350 F       1  UNL1       -0.2354
     31 C         140.6524  140.6228  160.2279 C.3     1  UNL1        0.1286
@<TRIPOS>BOND
     1    19    18    1
     2    19     1    1
     3     1     2   ar
     4     2     3   ar
     5     3     4   ar
     6     4     7    1
     7     7     8   ar
     8     8     9   ar
     9     9    10    1
    10     9    11   ar
    11    11    12    2
    12    11    13   ar
    13    13    14   ar
    14    14    15    1
    15    15    16    1
    16     4     5   ar
    17     5     6   ar
    18    19    20    1
    19    20    21    1
    20    20    24    1
    21    24    25    2
    22    24    26   am
    23    26    27    1
    24    27    28    1
    25    28    29    1
    26    29    30    1
    27    29    31    1
    28     6     1   ar
    29    31    26    1
    30    14     7   ar
    31    16    17    1
    32    21    22    1
    33    21    23    1
