@<TRIPOS>MOLECULE
*****
 32 34 0 0 0
SMALL
GASTEIGER

@<TRIPOS>ATOM
      1 C         140.8101  140.5551  168.6491 C.ar    1  UNL1        0.0764
      2 C         139.9957  140.0376  167.5005 C.ar    1  UNL1        0.0522
      3 C         138.6176  139.4966  167.7419 C.ar    1  UNL1        0.1515
      4 N         138.0540  139.4731  169.1319 N.ar    1  UNL1       -0.1329
      5 N         138.8684  139.9905  170.2803 N.ar    1  UNL1       -0.1409
      6 C         140.2465  140.5315  170.0389 C.ar    1  UNL1        0.1691
      7 C         141.0609  141.0489  171.1875 C.2     1  UNL1        0.2635
      8 N         142.3646  140.3948  171.5373 N.am    1  UNL1       -0.3240
      9 O         140.5715  142.2206  171.9861 O.2     1  UNL1       -0.2686
     10 H         142.6857  139.6258  171.0131 H       1  UNL1        0.1453
     11 H         142.8991  140.7344  172.2911 H       1  UNL1        0.1453
     12 N         142.1882  141.0961  168.4077 N.pl3   1  UNL1       -0.2965
     13 H         142.6369  141.6285  169.1037 H       1  UNL1        0.1537
     14 C         144.4956  142.8409  164.0913 C.3     1  UNL1        0.0546
     15 C         144.0363  141.6982  164.9476 C.ar    1  UNL1        0.0881
     16 N         143.3419  141.9684  166.2494 N.ar    1  UNL1       -0.2326
     17 C         142.8826  140.8258  167.1058 C.ar    1  UNL1        0.1319
     18 C         143.1177  139.4129  166.6604 C.ar    1  UNL1        0.0367
     19 C         143.8121  139.1427  165.3586 C.ar    1  UNL1        0.0337
     20 C         144.2714  140.2853  164.5022 C.ar    1  UNL1        0.1537
     21 F         144.9658  140.0151  163.2003 F       1  UNL1       -0.2029
     22 N         137.8032  138.9792  166.5935 N.pl3   1  UNL1       -0.3170
     23 H         136.8579  138.7399  166.7288 H       1  UNL1        0.1482
     24 C         138.4292  138.8264  165.2390 C.3     1  UNL1        0.0845
     25 C         139.2110  137.5894  164.9092 C.3     1  UNL1        0.0209
     26 C         139.8370  137.4367  163.5546 C.3     1  UNL1        0.0018
     27 C         139.6811  138.5208  162.5298 C.3     1  UNL1        0.0015
     28 C         138.8992  139.7578  162.8595 C.3     1  UNL1        0.0172
     29 C         138.2733  139.9106  164.2141 C.3     1  UNL1        0.0689
     30 N         137.4915  141.1475  164.5438 N.3     1  UNL1       -0.3209
     31 H         137.1403  141.0831  165.4993 H       1  UNL1        0.1189
     32 H         136.7067  141.2358  163.8983 H       1  UNL1        0.1189
@<TRIPOS>BOND
     1    14    15    1
     2    15    16   ar
     3    16    17   ar
     4    17    12    1
     5    12     1    1
     6     1     2   ar
     7     2     3   ar
     8     3    22    1
     9    24    22    1
    10    24    25    1
    11    25    26    1
    12    26    27    1
    13    27    28    1
    14    28    29    1
    15    29    30    1
    16     3     4   ar
    17     4     5   ar
    18     5     6   ar
    19     6     7    1
    20     7     8   am
    21     7     9    2
    22    17    18   ar
    23    18    19   ar
    24    19    20   ar
    25    20    21    1
    26    20    15   ar
    27     6     1   ar
    28    29    24    1
    29    12    13    1
    30    22    23    1
    31    30    31    1
    32    30    32    1
    33     8    10    1
    34     8    11    1
@<TRIPOS>MOLECULE
*****
 32 34 0 0 0
SMALL
GASTEIGER

@<TRIPOS>ATOM
      1 C         137.8876  140.0506  163.8198 C.ar    1  UNL1        0.0764
      2 C         138.0232  140.1241  165.3119 C.ar    1  UNL1        0.0522
      3 C         138.6979  139.0123  166.0593 C.ar    1  UNL1        0.1515
      4 N         139.2371  137.8270  165.3146 N.ar    1  UNL1       -0.1329
      5 N         139.1015  137.7536  163.8226 N.ar    1  UNL1       -0.1409
      6 C         138.4268  138.8654  163.0752 C.ar    1  UNL1        0.1691
      7 C         138.2912  138.7919  161.5831 C.2     1  UNL1        0.2635
      8 N         139.3562  138.1234  160.7653 N.am    1  UNL1       -0.3240
      9 O         137.0906  139.3869  160.9089 O.2     1  UNL1       -0.2686
     10 H         140.1442  137.7329  161.2078 H       1  UNL1        0.1453
     11 H         139.2672  138.0751  159.7860 H       1  UNL1        0.1453
     12 N         137.2129  141.1624  163.0723 N.pl3   1  UNL1       -0.2965
     13 H         136.2977  141.0412  162.7302 H       1  UNL1        0.1537
     14 C         140.1157  144.2291  160.0442 C.3     1  UNL1        0.0546
     15 C         139.3840  143.9923  161.3321 C.ar    1  UNL1        0.0881
     16 N         138.6643  142.6958  161.5583 N.ar    1  UNL1       -0.2326
     17 C         137.9326  142.4590  162.8461 C.ar    1  UNL1        0.1319
     18 C         137.9205  143.5186  163.9077 C.ar    1  UNL1        0.0367
     19 C         138.6401  144.8151  163.6814 C.ar    1  UNL1        0.0337
     20 C         139.3719  145.0519  162.3936 C.ar    1  UNL1        0.1537
     21 F         140.0916  146.3485  162.1674 F       1  UNL1       -0.2029
     22 N         138.8335  139.0858  167.5513 N.pl3   1  UNL1       -0.3170
     23 H         138.4874  138.3555  168.1136 H       1  UNL1        0.1482
     24 C         139.4963  140.2720  168.1866 C.3     1  UNL1        0.0845
     25 C         140.4916  141.0808  167.4088 C.3     1  UNL1        0.0209
     26 C         141.1545  142.2670  168.0442 C.3     1  UNL1        0.0018
     27 C         140.8220  142.6443  169.4574 C.3     1  UNL1        0.0015
     28 C         139.8267  141.8354  170.2352 C.3     1  UNL1        0.0172
     29 C         139.1638  140.6493  169.5999 C.3     1  UNL1        0.0689
     30 N         138.1685  139.8404  170.3777 N.3     1  UNL1       -0.3209
     31 H         137.8206  139.0783  169.7958 H       1  UNL1        0.1189
     32 H         137.3900  140.4370  170.6577 H       1  UNL1        0.1189
@<TRIPOS>BOND
     1    14    15    1
     2    15    16   ar
     3    16    17   ar
     4    17    12    1
     5    12     1    1
     6     1     2   ar
     7     2     3   ar
     8     3    22    1
     9    24    22    1
    10    24    25    1
    11    25    26    1
    12    26    27    1
    13    27    28    1
    14    28    29    1
    15    29    30    1
    16     3     4   ar
    17     4     5   ar
    18     5     6   ar
    19     6     7    1
    20     7     8   am
    21     7     9    2
    22    17    18   ar
    23    18    19   ar
    24    19    20   ar
    25    20    21    1
    26    20    15   ar
    27     6     1   ar
    28    29    24    1
    29    12    13    1
    30    22    23    1
    31    30    31    1
    32    30    32    1
    33     8    10    1
    34     8    11    1
@<TRIPOS>MOLECULE
*****
 32 34 0 0 0
SMALL
GASTEIGER

@<TRIPOS>ATOM
      1 C         140.3508  139.9036  166.8863 C.ar    1  UNL1        0.0764
      2 C         140.1622  139.1312  165.6143 C.ar    1  UNL1        0.0522
      3 C         138.9456  138.2730  165.4312 C.ar    1  UNL1        0.1515
      4 N         137.9176  138.1872  166.5203 N.ar    1  UNL1       -0.1329
      5 N         138.1062  138.9595  167.7923 N.ar    1  UNL1       -0.1409
      6 C         139.3228  139.8177  167.9753 C.ar    1  UNL1        0.1691
      7 C         139.5114  140.5900  169.2473 C.2     1  UNL1        0.2635
      8 N         139.1779  139.9569  170.5656 N.am    1  UNL1       -0.3240
      9 O         140.0335  141.9954  169.2010 O.2     1  UNL1       -0.2686
     10 H         138.8352  139.0344  170.5960 H       1  UNL1        0.1453
     11 H         139.3016  140.4637  171.4004 H       1  UNL1        0.1453
     12 N         141.5673  140.7618  167.0693 N.pl3   1  UNL1       -0.2965
     13 H         142.1983  140.5717  167.8008 H       1  UNL1        0.1537
     14 C         139.7883  144.7269  164.2209 C.3     1  UNL1        0.0546
     15 C         140.9330  143.8920  164.7136 C.ar    1  UNL1        0.0881
     16 N         140.6778  142.7443  165.6451 N.ar    1  UNL1       -0.2326
     17 C         141.8225  141.9095  166.1378 C.ar    1  UNL1        0.1319
     18 C         143.2223  142.2224  165.6991 C.ar    1  UNL1        0.0367
     19 C         143.4775  143.3701  164.7676 C.ar    1  UNL1        0.0337
     20 C         142.3328  144.2049  164.2749 C.ar    1  UNL1        0.1537
     21 F         142.5880  145.3526  163.3434 F       1  UNL1       -0.2029
     22 N         138.7570  137.5007  164.1593 N.pl3   1  UNL1       -0.3170
     23 H         138.4773  136.5574  164.1930 H       1  UNL1        0.1482
     24 C         138.9946  138.1657  162.8359 C.3     1  UNL1        0.0845
     25 C         137.9589  139.0870  162.2628 C.3     1  UNL1        0.0209
     26 C         138.1966  139.7520  160.9394 C.3     1  UNL1        0.0018
     27 C         139.4699  139.4957  160.1891 C.3     1  UNL1        0.0015
     28 C         140.5056  138.5743  160.7622 C.3     1  UNL1        0.0172
     29 C         140.2680  137.9094  162.0856 C.3     1  UNL1        0.0689
     30 N         141.3037  136.9880  162.6587 N.3     1  UNL1       -0.3209
     31 H         140.9792  136.6279  163.5562 H       1  UNL1        0.1189
     32 H         142.1763  137.4988  162.7928 H       1  UNL1        0.1189
@<TRIPOS>BOND
     1    14    15    1
     2    15    16   ar
     3    16    17   ar
     4    17    12    1
     5    12     1    1
     6     1     2   ar
     7     2     3   ar
     8     3    22    1
     9    24    22    1
    10    24    25    1
    11    25    26    1
    12    26    27    1
    13    27    28    1
    14    28    29    1
    15    29    30    1
    16     3     4   ar
    17     4     5   ar
    18     5     6   ar
    19     6     7    1
    20     7     8   am
    21     7     9    2
    22    17    18   ar
    23    18    19   ar
    24    19    20   ar
    25    20    21    1
    26    20    15   ar
    27     6     1   ar
    28    29    24    1
    29    12    13    1
    30    22    23    1
    31    30    31    1
    32    30    32    1
    33     8    10    1
    34     8    11    1
@<TRIPOS>MOLECULE
*****
 32 34 0 0 0
SMALL
GASTEIGER

@<TRIPOS>ATOM
      1 C         139.5360  140.7465  165.3475 C.ar    1  UNL1        0.0764
      2 C         140.0680  140.7652  166.7499 C.ar    1  UNL1        0.0522
      3 C         139.4308  139.9106  167.8052 C.ar    1  UNL1        0.1515
      4 N         138.2616  139.0372  167.4580 N.ar    1  UNL1       -0.1329
      5 N         137.7298  139.0185  166.0556 N.ar    1  UNL1       -0.1409
      6 C         138.3670  139.8731  165.0004 C.ar    1  UNL1        0.1691
      7 C         137.8351  139.8544  163.5979 C.2     1  UNL1        0.2635
      8 N         136.9771  140.9822  163.1061 N.am    1  UNL1       -0.3240
      9 O         138.1611  138.7078  162.6874 O.2     1  UNL1       -0.2686
     10 H         136.7631  141.7347  163.7037 H       1  UNL1        0.1453
     11 H         136.6280  140.9699  162.1856 H       1  UNL1        0.1453
     12 N         140.1732  141.6011  164.2922 N.pl3   1  UNL1       -0.2965
     13 H         139.6115  142.0765  163.6383 H       1  UNL1        0.1537
     14 C         144.8819  139.4055  164.2043 C.3     1  UNL1        0.0546
     15 C         144.0208  140.6336  164.1894 C.ar    1  UNL1        0.0881
     16 N         142.5276  140.5033  164.2483 N.ar    1  UNL1       -0.2326
     17 C         141.6665  141.7314  164.2333 C.ar    1  UNL1        0.1319
     18 C         142.2984  143.0897  164.1595 C.ar    1  UNL1        0.0367
     19 C         143.7916  143.2200  164.1006 C.ar    1  UNL1        0.0337
     20 C         144.6527  141.9919  164.1156 C.ar    1  UNL1        0.1537
     21 F         146.1460  142.1222  164.0567 F       1  UNL1       -0.2029
     22 N         139.9626  139.9292  169.2076 N.pl3   1  UNL1       -0.3170
     23 H         139.6259  139.2839  169.8704 H       1  UNL1        0.1482
     24 C         141.0076  140.9312  169.6001 C.3     1  UNL1        0.0845
     25 C         140.6102  142.3400  169.9278 C.3     1  UNL1        0.0209
     26 C         141.6552  143.3420  170.3203 C.3     1  UNL1        0.0018
     27 C         143.0975  142.9352  170.3850 C.3     1  UNL1        0.0015
     28 C         143.4949  141.5264  170.0573 C.3     1  UNL1        0.0172
     29 C         142.4499  140.5244  169.6649 C.3     1  UNL1        0.0689
     30 N         142.8473  139.1156  169.3371 N.3     1  UNL1       -0.3209
     31 H         142.0167  138.5760  169.0936 H       1  UNL1        0.1189
     32 H         143.3017  138.6934  170.1469 H       1  UNL1        0.1189
@<TRIPOS>BOND
     1    14    15    1
     2    15    16   ar
     3    16    17   ar
     4    17    12    1
     5    12     1    1
     6     1     2   ar
     7     2     3   ar
     8     3    22    1
     9    24    22    1
    10    24    25    1
    11    25    26    1
    12    26    27    1
    13    27    28    1
    14    28    29    1
    15    29    30    1
    16     3     4   ar
    17     4     5   ar
    18     5     6   ar
    19     6     7    1
    20     7     8   am
    21     7     9    2
    22    17    18   ar
    23    18    19   ar
    24    19    20   ar
    25    20    21    1
    26    20    15   ar
    27     6     1   ar
    28    29    24    1
    29    12    13    1
    30    22    23    1
    31    30    31    1
    32    30    32    1
    33     8    10    1
    34     8    11    1
@<TRIPOS>MOLECULE
*****
 32 34 0 0 0
SMALL
GASTEIGER

@<TRIPOS>ATOM
      1 C         140.1113  139.7069  165.2456 C.ar    1  UNL1        0.0764
      2 C         140.4583  139.9731  166.6805 C.ar    1  UNL1        0.0522
      3 C         139.4933  139.6008  167.7669 C.ar    1  UNL1        0.1515
      4 N         138.1813  138.9624  167.4183 N.ar    1  UNL1       -0.1329
      5 N         137.8345  138.6963  165.9835 N.ar    1  UNL1       -0.1409
      6 C         138.7995  139.0686  164.8971 C.ar    1  UNL1        0.1691
      7 C         138.4526  138.8024  163.4622 C.2     1  UNL1        0.2635
      8 N         138.7685  137.4706  162.8488 N.am    1  UNL1       -0.3240
      9 O         137.7897  139.8682  162.6408 O.2     1  UNL1       -0.2686
     10 H         139.2036  136.7711  163.3879 H       1  UNL1        0.1453
     11 H         138.5408  137.2959  161.9070 H       1  UNL1        0.1453
     12 N         141.0763  140.0792  164.1592 N.pl3   1  UNL1       -0.2965
     13 H         141.1836  139.4944  163.3745 H       1  UNL1        0.1537
     14 C         141.4456  145.2347  163.6260 C.3     1  UNL1        0.0546
     15 C         142.0625  143.9201  164.0019 C.ar    1  UNL1        0.0881
     16 N         141.2610  142.6569  163.8926 N.ar    1  UNL1       -0.2326
     17 C         141.8779  141.3424  164.2685 C.ar    1  UNL1        0.1319
     18 C         143.2963  141.2910  164.7537 C.ar    1  UNL1        0.0367
     19 C         144.0978  142.5541  164.8629 C.ar    1  UNL1        0.0337
     20 C         143.4809  143.8687  164.4870 C.ar    1  UNL1        0.1537
     21 F         144.2824  145.1319  164.5963 F       1  UNL1       -0.2029
     22 N         139.8401  139.8669  169.2017 N.pl3   1  UNL1       -0.3170
     23 H         139.3807  139.3732  169.9189 H       1  UNL1        0.1482
     24 C         140.8869  140.8853  169.5438 C.3     1  UNL1        0.0845
     25 C         140.5055  142.3266  169.7087 C.3     1  UNL1        0.0209
     26 C         141.5523  143.3451  170.0508 C.3     1  UNL1        0.0018
     27 C         142.9805  142.9222  170.2279 C.3     1  UNL1        0.0015
     28 C         143.3619  141.4809  170.0630 C.3     1  UNL1        0.0172
     29 C         142.3152  140.4625  169.7209 C.3     1  UNL1        0.0689
     30 N         142.6966  139.0212  169.5560 N.3     1  UNL1       -0.3209
     31 H         141.8669  138.4741  169.3264 H       1  UNL1        0.1189
     32 H         143.1021  138.6752  170.4256 H       1  UNL1        0.1189
@<TRIPOS>BOND
     1    14    15    1
     2    15    16   ar
     3    16    17   ar
     4    17    12    1
     5    12     1    1
     6     1     2   ar
     7     2     3   ar
     8     3    22    1
     9    24    22    1
    10    24    25    1
    11    25    26    1
    12    26    27    1
    13    27    28    1
    14    28    29    1
    15    29    30    1
    16     3     4   ar
    17     4     5   ar
    18     5     6   ar
    19     6     7    1
    20     7     8   am
    21     7     9    2
    22    17    18   ar
    23    18    19   ar
    24    19    20   ar
    25    20    21    1
    26    20    15   ar
    27     6     1   ar
    28    29    24    1
    29    12    13    1
    30    22    23    1
    31    30    31    1
    32    30    32    1
    33     8    10    1
    34     8    11    1
@<TRIPOS>MOLECULE
*****
 32 34 0 0 0
SMALL
GASTEIGER

@<TRIPOS>ATOM
      1 C         141.7158  140.5854  167.6283 C.ar    1  UNL1        0.0764
      2 C         140.5423  140.2409  166.7597 C.ar    1  UNL1        0.0522
      3 C         139.2782  139.7217  167.3782 C.ar    1  UNL1        0.1515
      4 N         139.1877  139.5470  168.8653 N.ar    1  UNL1       -0.1329
      5 N         140.3611  139.8914  169.7338 N.ar    1  UNL1       -0.1409
      6 C         141.6252  140.4106  169.1153 C.ar    1  UNL1        0.1691
      7 C         142.7987  140.7551  169.9838 C.2     1  UNL1        0.2635
      8 N         143.3061  139.7623  170.9873 N.am    1  UNL1       -0.3240
      9 O         143.4647  142.0923  169.8489 O.2     1  UNL1       -0.2686
     10 H         142.8690  138.8846  171.0758 H       1  UNL1        0.1453
     11 H         144.0763  139.9884  171.5573 H       1  UNL1        0.1453
     12 N         142.9799  141.1046  167.0098 N.pl3   1  UNL1       -0.2965
     13 H         143.8461  140.7024  167.2488 H       1  UNL1        0.1537
     14 C         140.2163  144.4492  164.1504 C.3     1  UNL1        0.0546
     15 C         141.5423  143.9088  164.5973 C.ar    1  UNL1        0.0881
     16 N         141.5981  142.7769  165.5800 N.ar    1  UNL1       -0.2326
     17 C         142.9241  142.2365  166.0270 C.ar    1  UNL1        0.1319
     18 C         144.1942  142.8278  165.4912 C.ar    1  UNL1        0.0367
     19 C         144.1383  143.9597  164.5085 C.ar    1  UNL1        0.0337
     20 C         142.8124  144.5001  164.0616 C.ar    1  UNL1        0.1537
     21 F         142.7566  145.6320  163.0788 F       1  UNL1       -0.2029
     22 N         138.1048  139.3773  166.5098 N.pl3   1  UNL1       -0.3170
     23 H         137.2037  139.3155  166.9016 H       1  UNL1        0.1482
     24 C         138.3042  139.1269  165.0443 C.3     1  UNL1        0.0845
     25 C         138.8031  137.7934  164.5723 C.3     1  UNL1        0.0209
     26 C         139.0026  137.5431  163.1068 C.3     1  UNL1        0.0018
     27 C         138.7030  138.6263  162.1134 C.3     1  UNL1        0.0015
     28 C         138.2041  139.9598  162.5854 C.3     1  UNL1        0.0172
     29 C         138.0047  140.2102  164.0508 C.3     1  UNL1        0.0689
     30 N         137.5057  141.5437  164.5228 N.3     1  UNL1       -0.3209
     31 H         137.4297  141.5376  165.5400 H       1  UNL1        0.1189
     32 H         136.5894  141.7278  164.1144 H       1  UNL1        0.1189
@<TRIPOS>BOND
     1    14    15    1
     2    15    16   ar
     3    16    17   ar
     4    17    12    1
     5    12     1    1
     6     1     2   ar
     7     2     3   ar
     8     3    22    1
     9    24    22    1
    10    24    25    1
    11    25    26    1
    12    26    27    1
    13    27    28    1
    14    28    29    1
    15    29    30    1
    16     3     4   ar
    17     4     5   ar
    18     5     6   ar
    19     6     7    1
    20     7     8   am
    21     7     9    2
    22    17    18   ar
    23    18    19   ar
    24    19    20   ar
    25    20    21    1
    26    20    15   ar
    27     6     1   ar
    28    29    24    1
    29    12    13    1
    30    22    23    1
    31    30    31    1
    32    30    32    1
    33     8    10    1
    34     8    11    1
@<TRIPOS>MOLECULE
*****
 32 34 0 0 0
SMALL
GASTEIGER

@<TRIPOS>ATOM
      1 C         141.6360  139.9197  167.0042 C.ar    1  UNL1        0.0764
      2 C         140.5029  139.8929  166.0216 C.ar    1  UNL1        0.0522
      3 C         139.0886  139.7893  166.5105 C.ar    1  UNL1        0.1515
      4 N         138.8074  139.7125  167.9819 N.ar    1  UNL1       -0.1329
      5 N         139.9405  139.7394  168.9644 N.ar    1  UNL1       -0.1409
      6 C         141.3548  139.8430  168.4756 C.ar    1  UNL1        0.1691
      7 C         142.4879  139.8698  169.4582 C.2     1  UNL1        0.2635
      8 N         142.7812  138.6620  170.2979 N.am    1  UNL1       -0.3240
      9 O         143.3277  141.1045  169.6010 O.2     1  UNL1       -0.2686
     10 H         142.2300  137.8517  170.2042 H       1  UNL1        0.1453
     11 H         143.5249  138.6796  170.9428 H       1  UNL1        0.1453
     12 N         143.0504  140.0233  166.5154 N.pl3   1  UNL1       -0.2965
     13 H         143.7294  139.3859  166.8345 H       1  UNL1        0.1537
     14 C         144.2939  141.4830  161.6860 C.3     1  UNL1        0.0546
     15 C         144.0518  141.8279  163.1255 C.ar    1  UNL1        0.0881
     16 N         143.6721  140.7532  164.1006 N.ar    1  UNL1       -0.2326
     17 C         143.4300  141.0981  165.5402 C.ar    1  UNL1        0.1319
     18 C         143.5676  142.5177  166.0047 C.ar    1  UNL1        0.0367
     19 C         143.9472  143.5924  165.0296 C.ar    1  UNL1        0.0337
     20 C         144.1893  143.2475  163.5900 C.ar    1  UNL1        0.1537
     21 F         144.5690  144.3222  162.6149 F       1  UNL1       -0.2029
     22 N         137.9555  139.7624  165.5280 N.pl3   1  UNL1       -0.3170
     23 H         137.2077  139.1351  165.6560 H       1  UNL1        0.1482
     24 C         137.9619  140.6914  164.3503 C.3     1  UNL1        0.0845
     25 C         137.8278  142.1705  164.5611 C.3     1  UNL1        0.0209
     26 C         137.8342  143.0995  163.3833 C.3     1  UNL1        0.0018
     27 C         137.9746  142.5494  161.9949 C.3     1  UNL1        0.0015
     28 C         138.1087  141.0704  161.7842 C.3     1  UNL1        0.0172
     29 C         138.1024  140.1414  162.9618 C.3     1  UNL1        0.0689
     30 N         138.2365  138.6623  162.7511 N.3     1  UNL1       -0.3209
     31 H         138.2125  138.1868  163.6532 H       1  UNL1        0.1189
     32 H         139.1222  138.4641  162.2857 H       1  UNL1        0.1189
@<TRIPOS>BOND
     1    14    15    1
     2    15    16   ar
     3    16    17   ar
     4    17    12    1
     5    12     1    1
     6     1     2   ar
     7     2     3   ar
     8     3    22    1
     9    24    22    1
    10    24    25    1
    11    25    26    1
    12    26    27    1
    13    27    28    1
    14    28    29    1
    15    29    30    1
    16     3     4   ar
    17     4     5   ar
    18     5     6   ar
    19     6     7    1
    20     7     8   am
    21     7     9    2
    22    17    18   ar
    23    18    19   ar
    24    19    20   ar
    25    20    21    1
    26    20    15   ar
    27     6     1   ar
    28    29    24    1
    29    12    13    1
    30    22    23    1
    31    30    31    1
    32    30    32    1
    33     8    10    1
    34     8    11    1
@<TRIPOS>MOLECULE
*****
 32 34 0 0 0
SMALL
GASTEIGER

@<TRIPOS>ATOM
      1 C         140.1338  143.2286  163.4274 C.ar    1  UNL1        0.0764
      2 C         141.3141  142.6057  164.1123 C.ar    1  UNL1        0.0522
      3 C         142.5327  143.4301  164.4046 C.ar    1  UNL1        0.1515
      4 N         142.5709  144.8774  164.0120 N.ar    1  UNL1       -0.1329
      5 N         141.3907  145.5002  163.3271 N.ar    1  UNL1       -0.1409
      6 C         140.1721  144.6758  163.0348 C.ar    1  UNL1        0.1691
      7 C         138.9918  145.2986  162.3499 C.2     1  UNL1        0.2635
      8 N         139.1973  146.4114  161.3652 N.am    1  UNL1       -0.3240
      9 O         137.6062  144.8087  162.6496 O.2     1  UNL1       -0.2686
     10 H         140.1067  146.7329  161.1685 H       1  UNL1        0.1453
     11 H         138.4226  146.8202  160.9157 H       1  UNL1        0.1453
     12 N         138.9152  142.4042  163.1350 N.pl3   1  UNL1       -0.2965
     13 H         138.1767  142.7869  162.6085 H       1  UNL1        0.1537
     14 C         137.9941  139.0768  167.0184 C.3     1  UNL1        0.0546
     15 C         138.3614  139.3330  165.5868 C.ar    1  UNL1        0.0881
     16 N         138.4547  140.7405  165.0767 N.ar    1  UNL1       -0.2326
     17 C         138.8219  140.9966  163.6451 C.ar    1  UNL1        0.1319
     18 C         139.0959  139.8453  162.7235 C.ar    1  UNL1        0.0367
     19 C         139.0026  138.4378  163.2336 C.ar    1  UNL1        0.0337
     20 C         138.6353  138.1816  164.6652 C.ar    1  UNL1        0.1537
     21 F         138.5421  136.7740  165.1752 F       1  UNL1       -0.2029
     22 N         143.7129  142.8074  165.0895 N.pl3   1  UNL1       -0.3170
     23 H         144.5041  143.3538  165.3011 H       1  UNL1        0.1482
     24 C         143.6877  141.3521  165.4521 C.3     1  UNL1        0.0845
     25 C         142.9087  140.8905  166.6479 C.3     1  UNL1        0.0209
     26 C         142.8836  139.4351  167.0105 C.3     1  UNL1        0.0018
     27 C         143.6374  138.4415  166.1772 C.3     1  UNL1        0.0015
     28 C         144.4164  138.9031  164.9813 C.3     1  UNL1        0.0172
     29 C         144.4415  140.3584  164.6188 C.3     1  UNL1        0.0689
     30 N         145.2205  140.8200  163.4229 N.3     1  UNL1       -0.3209
     31 H         145.1274  141.8311  163.3261 H       1  UNL1        0.1189
     32 H         144.8596  140.3636  162.5851 H       1  UNL1        0.1189
@<TRIPOS>BOND
     1    14    15    1
     2    15    16   ar
     3    16    17   ar
     4    17    12    1
     5    12     1    1
     6     1     2   ar
     7     2     3   ar
     8     3    22    1
     9    24    22    1
    10    24    25    1
    11    25    26    1
    12    26    27    1
    13    27    28    1
    14    28    29    1
    15    29    30    1
    16     3     4   ar
    17     4     5   ar
    18     5     6   ar
    19     6     7    1
    20     7     8   am
    21     7     9    2
    22    17    18   ar
    23    18    19   ar
    24    19    20   ar
    25    20    21    1
    26    20    15   ar
    27     6     1   ar
    28    29    24    1
    29    12    13    1
    30    22    23    1
    31    30    31    1
    32    30    32    1
    33     8    10    1
    34     8    11    1
@<TRIPOS>MOLECULE
*****
 32 34 0 0 0
SMALL
GASTEIGER

@<TRIPOS>ATOM
      1 C         140.1373  140.5469  166.9523 C.ar    1  UNL1        0.0764
      2 C         139.8632  140.2707  165.5036 C.ar    1  UNL1        0.0522
      3 C         138.7426  139.3529  165.1140 C.ar    1  UNL1        0.1515
      4 N         137.8961  138.7111  166.1732 N.ar    1  UNL1       -0.1329
      5 N         138.1703  138.9873  167.6218 N.ar    1  UNL1       -0.1409
      6 C         139.2909  139.9051  168.0114 C.ar    1  UNL1        0.1691
      7 C         139.5651  140.1813  169.4601 C.2     1  UNL1        0.2635
      8 N         138.4501  140.6148  170.3650 N.am    1  UNL1       -0.3240
      9 O         140.9542  140.0238  170.0037 O.2     1  UNL1       -0.2686
     10 H         137.5384  140.7181  170.0082 H       1  UNL1        0.1453
     11 H         138.6301  140.7960  171.3158 H       1  UNL1        0.1453
     12 N         141.2579  141.4647  167.3418 N.pl3   1  UNL1       -0.2965
     13 H         141.5651  141.4974  168.2766 H       1  UNL1        0.1537
     14 C         140.8823  144.9377  163.4951 C.3     1  UNL1        0.0546
     15 C         141.7227  144.0693  164.3837 C.ar    1  UNL1        0.0881
     16 N         141.0702  143.2013  165.4184 N.ar    1  UNL1       -0.2326
     17 C         141.9105  142.3328  166.3071 C.ar    1  UNL1        0.1319
     18 C         143.4033  142.3325  166.1610 C.ar    1  UNL1        0.0367
     19 C         144.0558  143.2005  165.1262 C.ar    1  UNL1        0.0337
     20 C         143.2155  144.0689  164.2376 C.ar    1  UNL1        0.1537
     21 F         143.8681  144.9370  163.2029 F       1  UNL1       -0.2029
     22 N         138.4684  139.0767  163.6654 N.pl3   1  UNL1       -0.3170
     23 H         138.0604  138.2223  163.3958 H       1  UNL1        0.1482
     24 C         138.8158  140.1024  162.6276 C.3     1  UNL1        0.0845
     25 C         140.0768  139.9624  161.8273 C.3     1  UNL1        0.0209
     26 C         140.4242  140.9882  160.7895 C.3     1  UNL1        0.0018
     27 C         139.5107  142.1539  160.5519 C.3     1  UNL1        0.0015
     28 C         138.2498  142.2940  161.3522 C.3     1  UNL1        0.0172
     29 C         137.9023  141.2683  162.3900 C.3     1  UNL1        0.0689
     30 N         136.6414  141.4083  163.1903 N.3     1  UNL1       -0.3209
     31 H         136.5651  140.6289  163.8438 H       1  UNL1        0.1189
     32 H         135.8378  141.4052  162.5620 H       1  UNL1        0.1189
@<TRIPOS>BOND
     1    14    15    1
     2    15    16   ar
     3    16    17   ar
     4    17    12    1
     5    12     1    1
     6     1     2   ar
     7     2     3   ar
     8     3    22    1
     9    24    22    1
    10    24    25    1
    11    25    26    1
    12    26    27    1
    13    27    28    1
    14    28    29    1
    15    29    30    1
    16     3     4   ar
    17     4     5   ar
    18     5     6   ar
    19     6     7    1
    20     7     8   am
    21     7     9    2
    22    17    18   ar
    23    18    19   ar
    24    19    20   ar
    25    20    21    1
    26    20    15   ar
    27     6     1   ar
    28    29    24    1
    29    12    13    1
    30    22    23    1
    31    30    31    1
    32    30    32    1
    33     8    10    1
    34     8    11    1
