@<TRIPOS>MOLECULE
*****
 28 31 0 0 0
SMALL
GASTEIGER

@<TRIPOS>ATOM
      1 C         137.3187  138.0839  167.1876 C.3     1  UNL1        0.0420
      2 C         138.2849  139.1379  166.7341 C.3     1  UNL1        0.1912
      3 O         138.3954  139.4772  165.2773 O.3     1  UNL1       -0.3500
      4 C         139.3617  140.5312  164.8238 C.3     1  UNL1        0.1145
      5 C         140.3279  141.5852  164.3704 C.3     1  UNL1        0.0463
      6 C         140.4383  141.9245  162.9136 C.3     1  UNL1        0.0746
      7 N         139.5826  141.2099  161.9100 N.3     1  UNL1       -0.2722
      8 C         138.6164  140.1560  162.3634 C.3     1  UNL1        0.0746
      9 C         138.5059  139.8166  163.8203 C.3     1  UNL1        0.0463
     10 C         140.2174  141.2458  165.8273 C.3     1  UNL1        0.1254
     11 N         140.1069  140.9064  167.2843 N.am    1  UNL1       -0.2535
     12 C         139.1407  139.8525  167.7377 C.2     1  UNL1        0.2566
     13 O         139.0302  139.5131  169.1946 O.2     1  UNL1       -0.2719
     14 C         140.9627  141.6210  168.2878 C.ar    1  UNL1        0.0645
     15 C         140.4687  142.8824  168.9318 C.ar    1  UNL1        0.0158
     16 C         141.3245  143.5970  169.9354 C.ar    1  UNL1        0.0013
     17 C         142.6742  143.0501  170.2949 C.ar    1  UNL1        0.0009
     18 C         143.1681  141.7886  169.6509 C.ar    1  UNL1        0.0127
     19 C         142.3124  141.0741  168.6473 C.ar    1  UNL1        0.0713
     20 CL        142.8063  139.8126  168.0033 Cl      1  UNL1       -0.0809
     21 C         139.6931  141.5493  160.4531 C.3     1  UNL1        0.0768
     22 C         140.7857  140.9439  159.6227 C.3     1  UNL1        0.0437
     23 C         141.7965  140.0366  160.2594 C.ar    1  UNL1       -0.0208
     24 C         143.1042  140.5914  160.7409 C.ar    1  UNL1       -0.0042
     25 C         144.1149  139.6841  161.3776 C.ar    1  UNL1       -0.0003
     26 C         143.8178  138.2220  161.5327 C.ar    1  UNL1       -0.0000
     27 C         142.5100  137.6672  161.0512 C.ar    1  UNL1       -0.0003
     28 C         141.4994  138.5745  160.4145 C.ar    1  UNL1       -0.0042
@<TRIPOS>BOND
     1     1     2    1
     2     2     3    1
     3     3     4    1
     4     4     5    1
     5     5     6    1
     6     6     7    1
     7     7    21    1
     8    21    22    1
     9    22    23    1
    10    23    24   ar
    11    24    25   ar
    12    25    26   ar
    13    26    27   ar
    14    27    28   ar
    15     7     8    1
    16     8     9    1
    17     4    10    1
    18    10    11    1
    19    11    14    1
    20    14    15   ar
    21    15    16   ar
    22    16    17   ar
    23    17    18   ar
    24    18    19   ar
    25    19    20    1
    26    11    12   am
    27    12    13    2
    28    12     2    1
    29     9     4    1
    30    19    14   ar
    31    28    23   ar
@<TRIPOS>MOLECULE
*****
 28 31 0 0 0
SMALL
GASTEIGER

@<TRIPOS>ATOM
      1 C         137.2792  138.0374  167.1804 C.3     1  UNL1        0.0420
      2 C         138.2666  139.0658  166.7140 C.3     1  UNL1        0.1912
      3 O         138.4118  139.3563  165.2496 O.3     1  UNL1       -0.3500
      4 C         139.3992  140.3847  164.7832 C.3     1  UNL1        0.1145
      5 C         140.3866  141.4131  164.3169 C.3     1  UNL1        0.0463
      6 C         140.5318  141.7035  162.8525 C.3     1  UNL1        0.0746
      7 N         139.6895  140.9657  161.8544 N.3     1  UNL1       -0.2722
      8 C         138.7021  139.9373  162.3207 C.3     1  UNL1        0.0746
      9 C         138.5570  139.6468  163.7851 C.3     1  UNL1        0.0463
     10 C         140.2414  141.1226  165.7813 C.3     1  UNL1        0.1254
     11 N         140.0962  140.8320  167.2458 N.am    1  UNL1       -0.2535
     12 C         139.1088  139.8037  167.7121 C.2     1  UNL1        0.2566
     13 O         138.9636  139.5131  169.1766 O.2     1  UNL1       -0.2719
     14 C         140.9385  141.5699  168.2439 C.ar    1  UNL1        0.0645
     15 C         140.4327  142.8418  168.8575 C.ar    1  UNL1        0.0158
     16 C         141.2750  143.5797  169.8556 C.ar    1  UNL1        0.0013
     17 C         142.6229  143.0457  170.2401 C.ar    1  UNL1        0.0009
     18 C         143.1287  141.7737  169.6264 C.ar    1  UNL1        0.0127
     19 C         142.2865  141.0359  168.6284 C.ar    1  UNL1        0.0713
     20 CL        142.7922  139.7640  168.0147 Cl      1  UNL1       -0.0809
     21 C         139.8347  141.2562  160.3900 C.3     1  UNL1        0.0768
     22 C         138.9482  142.2740  159.7358 C.3     1  UNL1        0.0437
     23 C         139.5525  143.4114  158.9667 C.ar    1  UNL1       -0.0208
     24 C         139.2686  143.5605  157.5014 C.ar    1  UNL1       -0.0042
     25 C         139.8729  144.6978  156.7324 C.ar    1  UNL1       -0.0003
     26 C         140.7610  145.6859  157.4287 C.ar    1  UNL1       -0.0000
     27 C         141.0448  145.5368  158.8940 C.ar    1  UNL1       -0.0003
     28 C         140.4406  144.3995  159.6630 C.ar    1  UNL1       -0.0042
@<TRIPOS>BOND
     1     1     2    1
     2     2     3    1
     3     3     4    1
     4     4     5    1
     5     5     6    1
     6     6     7    1
     7     7    21    1
     8    21    22    1
     9    22    23    1
    10    23    24   ar
    11    24    25   ar
    12    25    26   ar
    13    26    27   ar
    14    27    28   ar
    15     7     8    1
    16     8     9    1
    17     4    10    1
    18    10    11    1
    19    11    14    1
    20    14    15   ar
    21    15    16   ar
    22    16    17   ar
    23    17    18   ar
    24    18    19   ar
    25    19    20    1
    26    11    12   am
    27    12    13    2
    28    12     2    1
    29     9     4    1
    30    19    14   ar
    31    28    23   ar
@<TRIPOS>MOLECULE
*****
 28 31 0 0 0
SMALL
GASTEIGER

@<TRIPOS>ATOM
      1 C         137.0644  137.9303  167.3835 C.3     1  UNL1        0.0420
      2 C         138.1920  138.7829  166.8816 C.3     1  UNL1        0.1912
      3 O         138.5304  138.7946  165.4203 O.3     1  UNL1       -0.3500
      4 C         139.6580  139.6471  164.9184 C.3     1  UNL1        0.1145
      5 C         140.7855  140.4996  164.4165 C.3     1  UNL1        0.0463
      6 C         141.1239  140.5113  162.9553 C.3     1  UNL1        0.0746
      7 N         140.3348  139.6705  161.9959 N.3     1  UNL1       -0.2722
      8 C         139.2073  138.8180  162.4977 C.3     1  UNL1        0.0746
      9 C         138.8689  138.8063  163.9590 C.3     1  UNL1        0.0463
     10 C         140.4470  140.4879  165.8777 C.3     1  UNL1        0.1254
     11 N         140.1086  140.4762  167.3391 N.am    1  UNL1       -0.2535
     12 C         138.9811  139.6237  167.8409 C.2     1  UNL1        0.2566
     13 O         138.6426  139.6119  169.3022 O.2     1  UNL1       -0.2719
     14 C         140.8976  141.3170  168.2984 C.ar    1  UNL1        0.0645
     15 C         140.3791  142.6596  168.7209 C.ar    1  UNL1        0.0158
     16 C         141.1682  143.5004  169.6803 C.ar    1  UNL1        0.0013
     17 C         142.4758  142.9986  170.2172 C.ar    1  UNL1        0.0009
     18 C         142.9944  141.6559  169.7947 C.ar    1  UNL1        0.0127
     19 C         142.2053  140.8151  168.8353 C.ar    1  UNL1        0.0713
     20 CL        142.7238  139.4725  168.4129 Cl      1  UNL1       -0.0809
     21 C         140.6733  139.6823  160.5346 C.3     1  UNL1        0.0768
     22 C         139.8936  138.8304  159.5773 C.3     1  UNL1        0.0437
     23 C         139.1972  139.4612  158.4079 C.ar    1  UNL1       -0.0208
     24 C         139.5217  139.0164  157.0126 C.ar    1  UNL1       -0.0042
     25 C         138.8253  139.6472  155.8434 C.ar    1  UNL1       -0.0003
     26 C         137.8045  140.7227  156.0695 C.ar    1  UNL1       -0.0000
     27 C         137.4800  141.1675  157.4647 C.ar    1  UNL1       -0.0003
     28 C         138.1764  140.5368  158.6340 C.ar    1  UNL1       -0.0042
@<TRIPOS>BOND
     1     1     2    1
     2     2     3    1
     3     3     4    1
     4     4     5    1
     5     5     6    1
     6     6     7    1
     7     7    21    1
     8    21    22    1
     9    22    23    1
    10    23    24   ar
    11    24    25   ar
    12    25    26   ar
    13    26    27   ar
    14    27    28   ar
    15     7     8    1
    16     8     9    1
    17     4    10    1
    18    10    11    1
    19    11    14    1
    20    14    15   ar
    21    15    16   ar
    22    16    17   ar
    23    17    18   ar
    24    18    19   ar
    25    19    20    1
    26    11    12   am
    27    12    13    2
    28    12     2    1
    29     9     4    1
    30    19    14   ar
    31    28    23   ar
@<TRIPOS>MOLECULE
*****
 28 31 0 0 0
SMALL
GASTEIGER

@<TRIPOS>ATOM
      1 C         144.3314  137.3390  166.9935 C.3     1  UNL1        0.0420
      2 C         143.5407  138.5594  166.6252 C.3     1  UNL1        0.1912
      3 O         143.4314  138.9770  165.1887 O.3     1  UNL1       -0.3500
      4 C         142.6407  140.1974  164.8205 C.3     1  UNL1        0.1145
      5 C         141.8500  141.4177  164.4523 C.3     1  UNL1        0.0463
      6 C         141.7407  141.8353  163.0158 C.3     1  UNL1        0.0746
      7 N         142.4222  141.0326  161.9475 N.3     1  UNL1       -0.2722
      8 C         143.2128  139.8123  162.3156 C.3     1  UNL1        0.0746
      9 C         143.3221  139.3947  163.7521 C.3     1  UNL1        0.0463
     10 C         141.9593  141.0001  165.8888 C.3     1  UNL1        0.1254
     11 N         142.0686  140.5824  167.3254 N.am    1  UNL1       -0.2535
     12 C         142.8593  139.3621  167.6936 C.2     1  UNL1        0.2566
     13 O         142.9686  138.9444  169.1301 O.2     1  UNL1       -0.2719
     14 C         141.3872  141.3851  168.3937 C.ar    1  UNL1        0.0645
     15 C         142.0625  142.5948  168.9686 C.ar    1  UNL1        0.0158
     16 C         141.3811  143.3975  170.0369 C.ar    1  UNL1        0.0013
     17 C         140.0243  142.9905  170.5304 C.ar    1  UNL1        0.0009
     18 C         139.3489  141.7807  169.9556 C.ar    1  UNL1        0.0127
     19 C         140.0304  140.9780  168.8872 C.ar    1  UNL1        0.0713
     20 CL        139.3551  139.7683  168.3124 Cl      1  UNL1       -0.0809
     21 C         142.3128  141.4503  160.5109 C.3     1  UNL1        0.0768
     22 C         141.1516  140.9879  159.6817 C.3     1  UNL1        0.0437
     23 C         140.0163  140.2494  160.3266 C.ar    1  UNL1       -0.0208
     24 C         140.0997  138.7639  160.5168 C.ar    1  UNL1       -0.0042
     25 C         138.9644  138.0256  161.1617 C.ar    1  UNL1       -0.0003
     26 C         137.7458  138.7727  161.6164 C.ar    1  UNL1       -0.0000
     27 C         137.6624  140.2582  161.4262 C.ar    1  UNL1       -0.0003
     28 C         138.7977  140.9966  160.7813 C.ar    1  UNL1       -0.0042
@<TRIPOS>BOND
     1     1     2    1
     2     2     3    1
     3     3     4    1
     4     4     5    1
     5     5     6    1
     6     6     7    1
     7     7    21    1
     8    21    22    1
     9    22    23    1
    10    23    24   ar
    11    24    25   ar
    12    25    26   ar
    13    26    27   ar
    14    27    28   ar
    15     7     8    1
    16     8     9    1
    17     4    10    1
    18    10    11    1
    19    11    14    1
    20    14    15   ar
    21    15    16   ar
    22    16    17   ar
    23    17    18   ar
    24    18    19   ar
    25    19    20    1
    26    11    12   am
    27    12    13    2
    28    12     2    1
    29     9     4    1
    30    19    14   ar
    31    28    23   ar
@<TRIPOS>MOLECULE
*****
 28 31 0 0 0
SMALL
GASTEIGER

@<TRIPOS>ATOM
      1 C         143.3622  138.4457  165.5173 C.3     1  UNL1        0.0420
      2 C         142.5597  139.1242  164.4470 C.3     1  UNL1        0.1912
      3 O         142.6057  138.6132  163.0375 O.3     1  UNL1       -0.3500
      4 C         141.8032  139.2918  161.9671 C.3     1  UNL1        0.1145
      5 C         141.0007  139.9703  160.8968 C.3     1  UNL1        0.0463
      6 C         141.0467  139.4593  159.4873 C.3     1  UNL1        0.0746
      7 N         141.8951  138.2698  159.1481 N.3     1  UNL1       -0.2722
      8 C         142.6976  137.5912  160.2184 C.3     1  UNL1        0.0746
      9 C         142.6516  138.1022  161.6279 C.3     1  UNL1        0.0463
     10 C         140.9547  140.4813  162.3063 C.3     1  UNL1        0.1254
     11 N         140.9087  140.9923  163.7159 N.am    1  UNL1       -0.2535
     12 C         141.7112  140.3138  164.7862 C.2     1  UNL1        0.2566
     13 O         141.6653  140.8248  166.1958 O.2     1  UNL1       -0.2719
     14 C         140.0602  142.1818  164.0551 C.ar    1  UNL1        0.0645
     15 C         140.6786  143.5461  164.1342 C.ar    1  UNL1        0.0158
     16 C         139.8301  144.7357  164.4734 C.ar    1  UNL1        0.0013
     17 C         138.3633  144.5609  164.7336 C.ar    1  UNL1        0.0009
     18 C         137.7448  143.1966  164.6545 C.ar    1  UNL1        0.0127
     19 C         138.5933  142.0070  164.3153 C.ar    1  UNL1        0.0713
     20 CL        137.9749  140.6428  164.2363 Cl      1  UNL1       -0.0809
     21 C         141.9411  137.7588  157.7385 C.3     1  UNL1        0.0768
     22 C         143.0424  136.8343  157.3115 C.3     1  UNL1        0.0437
     23 C         142.7148  135.4599  156.8074 C.ar    1  UNL1       -0.0208
     24 C         143.4084  134.2632  157.3876 C.ar    1  UNL1       -0.0042
     25 C         143.0808  132.8890  156.8836 C.ar    1  UNL1       -0.0003
     26 C         142.0595  132.7115  155.7994 C.ar    1  UNL1       -0.0000
     27 C         141.3659  133.9082  155.2192 C.ar    1  UNL1       -0.0003
     28 C         141.6935  135.2824  155.7232 C.ar    1  UNL1       -0.0042
@<TRIPOS>BOND
     1     1     2    1
     2     2     3    1
     3     3     4    1
     4     4     5    1
     5     5     6    1
     6     6     7    1
     7     7    21    1
     8    21    22    1
     9    22    23    1
    10    23    24   ar
    11    24    25   ar
    12    25    26   ar
    13    26    27   ar
    14    27    28   ar
    15     7     8    1
    16     8     9    1
    17     4    10    1
    18    10    11    1
    19    11    14    1
    20    14    15   ar
    21    15    16   ar
    22    16    17   ar
    23    17    18   ar
    24    18    19   ar
    25    19    20    1
    26    11    12   am
    27    12    13    2
    28    12     2    1
    29     9     4    1
    30    19    14   ar
    31    28    23   ar
@<TRIPOS>MOLECULE
*****
 28 31 0 0 0
SMALL
GASTEIGER

@<TRIPOS>ATOM
      1 C         138.0648  139.3175  165.1010 C.3     1  UNL1        0.0420
      2 C         138.8979  140.5615  165.1934 C.3     1  UNL1        0.1912
      3 O         139.0065  141.4807  164.0130 O.3     1  UNL1       -0.3500
      4 C         139.8396  142.7247  164.1053 C.3     1  UNL1        0.1145
      5 C         140.6727  143.9686  164.1977 C.3     1  UNL1        0.0463
      6 C         140.7814  144.8878  163.0174 C.3     1  UNL1        0.0746
      7 N         140.0570  144.5630  161.7447 N.3     1  UNL1       -0.2722
      8 C         139.2239  143.3191  161.6523 C.3     1  UNL1        0.0746
      9 C         139.1152  142.3999  162.8326 C.3     1  UNL1        0.0463
     10 C         140.5640  143.0495  165.3781 C.3     1  UNL1        0.1254
     11 N         140.4553  142.1302  166.5584 N.am    1  UNL1       -0.2535
     12 C         139.6222  140.8863  166.4661 C.2     1  UNL1        0.2566
     13 O         139.5135  139.9670  167.6465 O.2     1  UNL1       -0.2719
     14 C         141.1797  142.4550  167.8312 C.ar    1  UNL1        0.0645
     15 C         140.4864  143.2305  168.9118 C.ar    1  UNL1        0.0158
     16 C         141.2108  143.5553  170.1845 C.ar    1  UNL1        0.0013
     17 C         142.6285  143.1045  170.3766 C.ar    1  UNL1        0.0009
     18 C         143.3218  142.3289  169.2959 C.ar    1  UNL1        0.0127
     19 C         142.5974  142.0042  168.0232 C.ar    1  UNL1        0.0713
     20 CL        143.2907  141.2286  166.9426 Cl      1  UNL1       -0.0809
     21 C         140.1657  145.4823  160.5643 C.3     1  UNL1        0.0768
     22 C         141.3159  145.3463  159.6112 C.3     1  UNL1        0.0437
     23 C         141.0573  145.1490  158.1468 C.ar    1  UNL1       -0.0208
     24 C         139.8497  144.3825  157.6951 C.ar    1  UNL1       -0.0042
     25 C         139.5911  144.1853  156.2308 C.ar    1  UNL1       -0.0003
     26 C         140.5402  144.7545  155.2182 C.ar    1  UNL1       -0.0000
     27 C         141.7478  145.5210  155.6700 C.ar    1  UNL1       -0.0003
     28 C         142.0064  145.7182  157.1343 C.ar    1  UNL1       -0.0042
@<TRIPOS>BOND
     1     1     2    1
     2     2     3    1
     3     3     4    1
     4     4     5    1
     5     5     6    1
     6     6     7    1
     7     7    21    1
     8    21    22    1
     9    22    23    1
    10    23    24   ar
    11    24    25   ar
    12    25    26   ar
    13    26    27   ar
    14    27    28   ar
    15     7     8    1
    16     8     9    1
    17     4    10    1
    18    10    11    1
    19    11    14    1
    20    14    15   ar
    21    15    16   ar
    22    16    17   ar
    23    17    18   ar
    24    18    19   ar
    25    19    20    1
    26    11    12   am
    27    12    13    2
    28    12     2    1
    29     9     4    1
    30    19    14   ar
    31    28    23   ar
@<TRIPOS>MOLECULE
*****
 28 31 0 0 0
SMALL
GASTEIGER

@<TRIPOS>ATOM
      1 C         144.9971  140.2785  164.2553 C.3     1  UNL1        0.0420
      2 C         143.5526  140.6172  164.0342 C.3     1  UNL1        0.1912
      3 O         143.1783  141.7446  163.1184 O.3     1  UNL1       -0.3500
      4 C         141.7338  142.0833  162.8972 C.3     1  UNL1        0.1145
      5 C         140.2894  142.4219  162.6761 C.3     1  UNL1        0.0463
      6 C         139.9151  143.5494  161.7603 C.3     1  UNL1        0.0746
      7 N         140.9852  144.3382  161.0656 N.3     1  UNL1       -0.2722
      8 C         142.4297  143.9996  161.2867 C.3     1  UNL1        0.0746
      9 C         142.8040  142.8721  162.2025 C.3     1  UNL1        0.0463
     10 C         140.6637  141.2945  163.5919 C.3     1  UNL1        0.1254
     11 N         141.0381  140.1670  164.5077 N.am    1  UNL1       -0.2535
     12 C         142.4825  139.8284  164.7288 C.2     1  UNL1        0.2566
     13 O         142.8569  138.7009  165.6447 O.2     1  UNL1       -0.2719
     14 C         139.9680  139.3782  165.2024 C.ar    1  UNL1        0.0645
     15 C         139.3201  139.9218  166.4412 C.ar    1  UNL1        0.0158
     16 C         138.2499  139.1330  167.1359 C.ar    1  UNL1        0.0013
     17 C         137.8277  137.8005  166.5918 C.ar    1  UNL1        0.0009
     18 C         138.4756  137.2567  165.3530 C.ar    1  UNL1        0.0127
     19 C         139.5457  138.0456  164.6583 C.ar    1  UNL1        0.0713
     20 CL        140.1936  137.5019  163.4195 Cl      1  UNL1       -0.0809
     21 C         140.6109  145.4657  160.1498 C.3     1  UNL1        0.0768
     22 C         141.1519  145.5073  158.7514 C.3     1  UNL1        0.0437
     23 C         140.2167  145.4141  157.5823 C.ar    1  UNL1       -0.0208
     24 C         139.8383  146.6517  156.8240 C.ar    1  UNL1       -0.0042
     25 C         138.9032  146.5585  155.6550 C.ar    1  UNL1       -0.0003
     26 C         138.3465  145.2276  155.2442 C.ar    1  UNL1       -0.0000
     27 C         138.7249  143.9899  156.0024 C.ar    1  UNL1       -0.0003
     28 C         139.6600  144.0832  157.1715 C.ar    1  UNL1       -0.0042
@<TRIPOS>BOND
     1     1     2    1
     2     2     3    1
     3     3     4    1
     4     4     5    1
     5     5     6    1
     6     6     7    1
     7     7    21    1
     8    21    22    1
     9    22    23    1
    10    23    24   ar
    11    24    25   ar
    12    25    26   ar
    13    26    27   ar
    14    27    28   ar
    15     7     8    1
    16     8     9    1
    17     4    10    1
    18    10    11    1
    19    11    14    1
    20    14    15   ar
    21    15    16   ar
    22    16    17   ar
    23    17    18   ar
    24    18    19   ar
    25    19    20    1
    26    11    12   am
    27    12    13    2
    28    12     2    1
    29     9     4    1
    30    19    14   ar
    31    28    23   ar
@<TRIPOS>MOLECULE
*****
 28 31 0 0 0
SMALL
GASTEIGER

@<TRIPOS>ATOM
      1 C         138.8433  144.7991  163.7320 C.3     1  UNL1        0.0420
      2 C         139.9628  144.3405  162.8452 C.3     1  UNL1        0.1912
      3 O         140.0172  144.7872  161.4143 O.3     1  UNL1       -0.3500
      4 C         141.1368  144.3286  160.5275 C.3     1  UNL1        0.1145
      5 C         142.2563  143.8700  159.6407 C.3     1  UNL1        0.0463
      6 C         142.3107  144.3167  158.2098 C.3     1  UNL1        0.0746
      7 N         141.2456  145.2220  157.6657 N.3     1  UNL1       -0.2722
      8 C         140.1261  145.6805  158.5524 C.3     1  UNL1        0.0746
      9 C         140.0717  145.2339  159.9833 C.3     1  UNL1        0.0463
     10 C         142.2019  143.4234  161.0716 C.3     1  UNL1        0.1254
     11 N         142.1475  142.9767  162.5026 N.am    1  UNL1       -0.2535
     12 C         141.0279  143.4353  163.3893 C.2     1  UNL1        0.2566
     13 O         140.9735  142.9886  164.8203 O.2     1  UNL1       -0.2719
     14 C         143.2126  142.0715  163.0467 C.ar    1  UNL1        0.0645
     15 C         144.5144  142.6457  163.5213 C.ar    1  UNL1        0.0158
     16 C         145.5795  141.7405  164.0655 C.ar    1  UNL1        0.0013
     17 C         145.3428  140.2610  164.1350 C.ar    1  UNL1        0.0009
     18 C         144.0408  139.6866  163.6604 C.ar    1  UNL1        0.0127
     19 C         142.9757  140.5919  163.1163 C.ar    1  UNL1        0.0713
     20 CL        141.6739  140.0176  162.6417 Cl      1  UNL1       -0.0809
     21 C         141.3001  145.6686  156.2347 C.3     1  UNL1        0.0768
     22 C         140.0365  146.0379  155.5157 C.3     1  UNL1        0.0437
     23 C         139.7181  147.4796  155.2511 C.ar    1  UNL1       -0.0208
     24 C         140.2618  148.1555  154.0274 C.ar    1  UNL1       -0.0042
     25 C         139.9434  149.5972  153.7628 C.ar    1  UNL1       -0.0003
     26 C         139.0811  150.3630  154.7220 C.ar    1  UNL1       -0.0000
     27 C         138.5373  149.6872  155.9457 C.ar    1  UNL1       -0.0003
     28 C         138.8558  148.2455  156.2102 C.ar    1  UNL1       -0.0042
@<TRIPOS>BOND
     1     1     2    1
     2     2     3    1
     3     3     4    1
     4     4     5    1
     5     5     6    1
     6     6     7    1
     7     7    21    1
     8    21    22    1
     9    22    23    1
    10    23    24   ar
    11    24    25   ar
    12    25    26   ar
    13    26    27   ar
    14    27    28   ar
    15     7     8    1
    16     8     9    1
    17     4    10    1
    18    10    11    1
    19    11    14    1
    20    14    15   ar
    21    15    16   ar
    22    16    17   ar
    23    17    18   ar
    24    18    19   ar
    25    19    20    1
    26    11    12   am
    27    12    13    2
    28    12     2    1
    29     9     4    1
    30    19    14   ar
    31    28    23   ar
@<TRIPOS>MOLECULE
*****
 28 31 0 0 0
SMALL
GASTEIGER

@<TRIPOS>ATOM
      1 C         139.0054  144.5500  164.7947 C.3     1  UNL1        0.0420
      2 C         140.2880  143.7748  164.8618 C.3     1  UNL1        0.1912
      3 O         141.1754  143.6873  163.6557 O.3     1  UNL1       -0.3500
      4 C         142.4579  142.9121  163.7228 C.3     1  UNL1        0.1145
      5 C         143.7403  142.1370  163.7900 C.3     1  UNL1        0.0463
      6 C         144.6277  142.0495  162.5839 C.3     1  UNL1        0.0746
      7 N         144.2327  142.7370  161.3106 N.3     1  UNL1       -0.2722
      8 C         142.9502  143.5121  161.2434 C.3     1  UNL1        0.0746
      9 C         142.0628  143.5997  162.4495 C.3     1  UNL1        0.0463
     10 C         142.8529  142.2246  164.9961 C.3     1  UNL1        0.1254
     11 N         141.9654  142.3122  166.2023 N.am    1  UNL1       -0.2535
     12 C         140.6830  143.0873  166.1351 C.2     1  UNL1        0.2566
     13 O         139.7955  143.1749  167.3413 O.2     1  UNL1       -0.2719
     14 C         142.3604  141.6247  167.4756 C.ar    1  UNL1        0.0645
     15 C         143.0532  142.3951  168.5602 C.ar    1  UNL1        0.0158
     16 C         143.4482  141.7076  169.8335 C.ar    1  UNL1        0.0013
     17 C         143.1505  140.2496  170.0222 C.ar    1  UNL1        0.0009
     18 C         142.4577  139.4791  168.9375 C.ar    1  UNL1        0.0127
     19 C         142.0627  140.1666  167.6642 C.ar    1  UNL1        0.0713
     20 CL        141.3699  139.3962  166.5796 Cl      1  UNL1       -0.0809
     21 C         145.1202  142.6494  160.1044 C.3     1  UNL1        0.0768
     22 C         144.5250  142.3868  158.7528 C.3     1  UNL1        0.0437
     23 C         145.4163  142.0591  157.5916 C.ar    1  UNL1       -0.0208
     24 C         146.7137  142.7900  157.4123 C.ar    1  UNL1       -0.0042
     25 C         147.6049  142.4623  156.2512 C.ar    1  UNL1       -0.0003
     26 C         147.1986  141.4035  155.2693 C.ar    1  UNL1       -0.0000
     27 C         145.9012  140.6725  155.4487 C.ar    1  UNL1       -0.0003
     28 C         145.0100  141.0003  156.6098 C.ar    1  UNL1       -0.0042
@<TRIPOS>BOND
     1     1     2    1
     2     2     3    1
     3     3     4    1
     4     4     5    1
     5     5     6    1
     6     6     7    1
     7     7    21    1
     8    21    22    1
     9    22    23    1
    10    23    24   ar
    11    24    25   ar
    12    25    26   ar
    13    26    27   ar
    14    27    28   ar
    15     7     8    1
    16     8     9    1
    17     4    10    1
    18    10    11    1
    19    11    14    1
    20    14    15   ar
    21    15    16   ar
    22    16    17   ar
    23    17    18   ar
    24    18    19   ar
    25    19    20    1
    26    11    12   am
    27    12    13    2
    28    12     2    1
    29     9     4    1
    30    19    14   ar
    31    28    23   ar
