@<TRIPOS>MOLECULE
*****
 38 42 0 0 0
SMALL
GASTEIGER

@<TRIPOS>ATOM
      1 C         140.5833  143.2578  164.3904 C.2     1  UNL1        0.2352
      2 O         140.0915  143.5125  165.7844 O.2     1  UNL1       -0.2737
      3 N         141.3184  141.9889  164.0746 N.am    1  UNL1       -0.3012
      4 H         141.6412  141.8217  163.1596 H       1  UNL1        0.1497
      5 N         139.8493  145.0373  164.5050 N.3     1  UNL1       -0.3162
      6 C         140.3401  144.2718  163.3122 C.3     1  UNL1        0.1166
      7 C         140.9154  143.1540  162.4937 C.3     1  UNL1        0.0739
      8 C         141.0770  143.3162  161.0113 C.3     1  UNL1        0.2039
      9 N         140.6633  144.5960  160.3473 N.pl3   1  UNL1       -0.1931
     10 C         140.0880  145.7138  161.1657 C.3     1  UNL1        0.2039
     11 C         139.9264  145.5516  162.6481 C.3     1  UNL1        0.0739
     12 H         139.9518  144.4642  165.3425 H       1  UNL1        0.1192
     13 H         138.8662  145.2762  164.3747 H       1  UNL1        0.1192
     14 C         140.8249  144.7581  158.8648 C.2     1  UNL1        0.3205
     15 N         141.8849  145.6697  158.3212 N.2     1  UNL1        0.0097
     16 C         142.0465  145.8318  156.8388 C.2     1  UNL1        0.4717
     17 N         141.1482  145.0823  155.8999 N.2     1  UNL1        0.0158
     18 C         140.0882  144.1708  156.4436 C.2     1  UNL1        0.3714
     19 N         139.0628  143.3090  155.7685 N.2     1  UNL1       -0.0339
     20 C         138.2675  142.6142  156.8337 C.2     1  UNL1        0.2323
     21 C         138.8013  143.0466  158.1671 C.2     1  UNL1        0.0486
     22 C         139.9266  144.0087  157.9260 C.3     1  UNL1        0.2428
     23 C         141.5617  140.9749  165.1528 C.3     1  UNL1        0.0941
     24 C         140.4173  140.1771  165.7041 C.ar    1  UNL1       -0.0045
     25 C         139.9859  140.3695  167.1278 C.ar    1  UNL1       -0.0018
     26 C         138.8416  139.5717  167.6790 C.ar    1  UNL1        0.0111
     27 C         138.1286  138.5815  166.8066 C.ar    1  UNL1        0.0577
     28 CL        136.9841  137.7837  167.3579 Cl      1  UNL1       -0.0822
     29 C         138.5599  138.3891  165.3829 C.ar    1  UNL1        0.0111
     30 C         139.7043  139.1869  164.8316 C.ar    1  UNL1       -0.0018
     31 C         142.9494  140.7586  165.6797 C.3     1  UNL1        0.0256
     32 C         144.0414  140.3097  164.7545 C.3     1  UNL1        0.0194
     33 C         145.0290  141.3049  164.2213 C.3     1  UNL1        0.0722
     34 N         144.6062  142.7228  163.9752 N.3     1  UNL1       -0.2727
     35 C         144.2608  143.7351  165.0269 C.3     1  UNL1        0.0721
     36 C         143.8958  145.0155  164.3358 C.3     1  UNL1        0.0188
     37 C         144.0155  144.7944  162.8570 C.3     1  UNL1        0.0188
     38 C         144.4546  143.3776  162.6342 C.3     1  UNL1        0.0721
@<TRIPOS>BOND
     1     5     6    1
     2     6     1    1
     3     1     2    2
     4     1     3   am
     5     3    23    1
     6    23    31    1
     7    31    32    1
     8    32    33    1
     9    33    34    1
    10    34    35    1
    11    35    36    1
    12    36    37    1
    13    37    38    1
    14    23    24    1
    15    24    25   ar
    16    25    26   ar
    17    26    27   ar
    18    27    28    1
    19    27    29   ar
    20    29    30   ar
    21     6     7    1
    22     7     8    1
    23     8     9    1
    24     9    14    1
    25    14    15    2
    26    15    16    1
    27    16    17    2
    28    17    18    1
    29    18    19    2
    30    19    20    1
    31    20    21    2
    32    21    22    1
    33     9    10    1
    34    10    11    1
    35    11     6    1
    36    38    34    1
    37    30    24   ar
    38    22    14    1
    39    22    18    1
    40     5    12    1
    41     5    13    1
    42     3     4    1
@<TRIPOS>MOLECULE
*****
 38 42 0 0 0
SMALL
GASTEIGER

@<TRIPOS>ATOM
      1 C         141.1865  138.8701  164.0360 C.2     1  UNL1        0.2352
      2 O         140.5761  137.6805  164.7159 O.2     1  UNL1       -0.2737
      3 N         140.6532  140.2453  164.3087 N.am    1  UNL1       -0.3012
      4 H         141.0539  141.0261  163.8625 H       1  UNL1        0.1497
      5 N         143.0202  138.3826  164.3804 N.3     1  UNL1       -0.3162
      6 C         142.3302  138.6846  163.0833 C.3     1  UNL1        0.1166
      7 C         141.2429  139.0510  162.1169 C.3     1  UNL1        0.0739
      8 C         141.5390  139.1270  160.6485 C.3     1  UNL1        0.2039
      9 N         142.9223  138.8366  160.1462 N.pl3   1  UNL1       -0.1931
     10 C         144.0095  138.4702  161.1125 C.3     1  UNL1        0.2039
     11 C         143.7134  138.3942  162.5811 C.3     1  UNL1        0.0739
     12 H         142.3541  138.4691  165.1481 H       1  UNL1        0.1192
     13 H         143.7864  139.0414  164.5193 H       1  UNL1        0.1192
     14 C         143.2184  138.9126  158.6777 C.2     1  UNL1        0.3205
     15 N         142.9749  137.7203  157.8008 N.2     1  UNL1        0.0097
     16 C         143.2709  137.7963  156.3324 C.2     1  UNL1        0.4717
     17 N         143.8104  139.0647  155.7406 N.2     1  UNL1        0.0158
     18 C         144.0539  140.2571  156.6175 C.2     1  UNL1        0.3714
     19 N         144.5753  141.6317  156.3203 N.2     1  UNL1       -0.0339
     20 C         144.6016  142.4053  157.6051 C.2     1  UNL1        0.2323
     21 C         144.0964  141.5088  158.6964 C.2     1  UNL1        0.0486
     22 C         143.7579  140.1810  158.0860 C.3     1  UNL1        0.2428
     23 C         139.5095  140.4310  165.2614 C.3     1  UNL1        0.0941
     24 C         139.7757  140.8112  166.6878 C.ar    1  UNL1       -0.0045
     25 C         139.3820  139.8822  167.7977 C.ar    1  UNL1       -0.0018
     26 C         139.6481  140.2625  169.2240 C.ar    1  UNL1        0.0111
     27 C         140.3081  141.5718  169.5404 C.ar    1  UNL1        0.0577
     28 CL        140.5743  141.9521  170.9669 Cl      1  UNL1       -0.0822
     29 C         140.7019  142.5009  168.4306 C.ar    1  UNL1        0.0111
     30 C         140.4357  142.1206  167.0042 C.ar    1  UNL1       -0.0018
     31 C         138.0997  140.2363  164.7877 C.3     1  UNL1        0.0256
     32 C         137.7170  140.6275  163.3910 C.3     1  UNL1        0.0194
     33 C         137.3941  142.0578  163.0747 C.3     1  UNL1        0.0722
     34 N         138.1878  143.1630  163.7058 N.3     1  UNL1       -0.2727
     35 C         137.7478  144.0183  164.8569 C.3     1  UNL1        0.0721
     36 C         138.8490  144.9910  165.1592 C.3     1  UNL1        0.0188
     37 C         139.9696  144.7368  164.1949 C.3     1  UNL1        0.0188
     38 C         139.5609  143.6072  163.2968 C.3     1  UNL1        0.0721
@<TRIPOS>BOND
     1     5     6    1
     2     6     1    1
     3     1     2    2
     4     1     3   am
     5     3    23    1
     6    23    31    1
     7    31    32    1
     8    32    33    1
     9    33    34    1
    10    34    35    1
    11    35    36    1
    12    36    37    1
    13    37    38    1
    14    23    24    1
    15    24    25   ar
    16    25    26   ar
    17    26    27   ar
    18    27    28    1
    19    27    29   ar
    20    29    30   ar
    21     6     7    1
    22     7     8    1
    23     8     9    1
    24     9    14    1
    25    14    15    2
    26    15    16    1
    27    16    17    2
    28    17    18    1
    29    18    19    2
    30    19    20    1
    31    20    21    2
    32    21    22    1
    33     9    10    1
    34    10    11    1
    35    11     6    1
    36    38    34    1
    37    30    24   ar
    38    22    14    1
    39    22    18    1
    40     5    12    1
    41     5    13    1
    42     3     4    1
@<TRIPOS>MOLECULE
*****
 38 42 0 0 0
SMALL
GASTEIGER

@<TRIPOS>ATOM
      1 C         139.4475  140.6376  164.6215 C.2     1  UNL1        0.2352
      2 O         138.6574  139.9256  165.6792 O.2     1  UNL1       -0.2737
      3 N         140.9461  140.5724  164.6334 N.am    1  UNL1       -0.3012
      4 H         141.4646  141.0397  163.9392 H       1  UNL1        0.1497
      5 N         137.5815  141.0927  164.4495 N.3     1  UNL1       -0.3162
      6 C         138.7392  141.4148  163.5519 C.3     1  UNL1        0.1166
      7 C         140.1430  141.4670  163.0256 C.3     1  UNL1        0.0739
      8 C         140.4363  142.1846  161.7415 C.3     1  UNL1        0.2039
      9 N         139.3260  142.8500  160.9836 N.pl3   1  UNL1       -0.1931
     10 C         137.9223  142.7978  161.5097 C.3     1  UNL1        0.2039
     11 C         137.6289  142.0802  162.7939 C.3     1  UNL1        0.0739
     12 H         137.9110  140.5501  165.2479 H       1  UNL1        0.1192
     13 H         136.8904  140.5501  163.9316 H       1  UNL1        0.1192
     14 C         139.6194  143.5676  159.6994 C.2     1  UNL1        0.3205
     15 N         140.4080  144.8434  159.7165 N.2     1  UNL1        0.0097
     16 C         140.7015  145.5609  158.4324 C.2     1  UNL1        0.4717
     17 N         140.2062  145.0027  157.1311 N.2     1  UNL1        0.0158
     18 C         139.4175  143.7269  157.1141 C.2     1  UNL1        0.3714
     19 N         138.8032  142.9416  155.9934 N.2     1  UNL1       -0.0339
     20 C         138.1301  141.7387  156.5849 C.2     1  UNL1        0.2323
     21 C         138.3285  141.7806  158.0712 C.2     1  UNL1        0.0486
     22 C         139.1241  143.0094  158.3982 C.3     1  UNL1        0.2428
     23 C         141.6545  139.7951  165.7031 C.3     1  UNL1        0.0941
     24 C         141.8397  140.3927  167.0663 C.ar    1  UNL1       -0.0045
     25 C         141.4211  141.8093  167.3275 C.ar    1  UNL1       -0.0018
     26 C         141.6063  142.4068  168.6908 C.ar    1  UNL1        0.0111
     27 C         142.2103  141.5879  169.7929 C.ar    1  UNL1        0.0577
     28 CL        142.3956  142.1856  171.1562 Cl      1  UNL1       -0.0822
     29 C         142.6290  140.1714  169.5317 C.ar    1  UNL1        0.0111
     30 C         142.4437  139.5738  168.1684 C.ar    1  UNL1       -0.0018
     31 C         142.1775  138.4203  165.4094 C.3     1  UNL1        0.0256
     32 C         141.2800  137.3943  164.7834 C.3     1  UNL1        0.0194
     33 C         141.2745  137.2110  163.2946 C.3     1  UNL1        0.0722
     34 N         140.1315  137.7377  162.4785 N.3     1  UNL1       -0.2727
     35 C         138.6812  137.6904  162.8586 C.3     1  UNL1        0.0721
     36 C         137.8914  138.3276  161.7539 C.3     1  UNL1        0.0188
     37 C         138.8537  138.7688  160.6910 C.3     1  UNL1        0.0188
     38 C         140.2380  138.4041  161.1388 C.3     1  UNL1        0.0721
@<TRIPOS>BOND
     1     5     6    1
     2     6     1    1
     3     1     2    2
     4     1     3   am
     5     3    23    1
     6    23    31    1
     7    31    32    1
     8    32    33    1
     9    33    34    1
    10    34    35    1
    11    35    36    1
    12    36    37    1
    13    37    38    1
    14    23    24    1
    15    24    25   ar
    16    25    26   ar
    17    26    27   ar
    18    27    28    1
    19    27    29   ar
    20    29    30   ar
    21     6     7    1
    22     7     8    1
    23     8     9    1
    24     9    14    1
    25    14    15    2
    26    15    16    1
    27    16    17    2
    28    17    18    1
    29    18    19    2
    30    19    20    1
    31    20    21    2
    32    21    22    1
    33     9    10    1
    34    10    11    1
    35    11     6    1
    36    38    34    1
    37    30    24   ar
    38    22    14    1
    39    22    18    1
    40     5    12    1
    41     5    13    1
    42     3     4    1
@<TRIPOS>MOLECULE
*****
 38 42 0 0 0
SMALL
GASTEIGER

@<TRIPOS>ATOM
      1 C         140.2989  138.5461  162.6670 C.2     1  UNL1        0.2352
      2 O         139.3378  137.4843  163.1128 O.2     1  UNL1       -0.2737
      3 N         140.1006  139.9678  163.1022 N.am    1  UNL1       -0.3012
      4 H         140.7315  140.6647  162.8096 H       1  UNL1        0.1497
      5 N         142.0432  137.8665  163.1295 N.3     1  UNL1       -0.3162
      6 C         141.4582  138.1863  161.7859 C.3     1  UNL1        0.1166
      7 C         140.4706  138.6310  160.7482 C.3     1  UNL1        0.0739
      8 C         140.8454  138.6049  159.2961 C.3     1  UNL1        0.2039
      9 N         142.2081  138.1340  158.8815 N.pl3   1  UNL1       -0.1931
     10 C         143.1957  137.6893  159.9192 C.3     1  UNL1        0.2039
     11 C         142.8208  137.7154  161.3714 C.3     1  UNL1        0.0739
     12 H         141.3550  138.0644  163.8558 H       1  UNL1        0.1192
     13 H         142.8739  138.4381  163.2835 H       1  UNL1        0.1192
     14 C         142.5829  138.1079  157.4294 C.2     1  UNL1        0.3205
     15 N         142.6132  139.3828  156.6396 N.2     1  UNL1        0.0097
     16 C         142.9880  139.3567  155.1875 C.2     1  UNL1        0.4717
     17 N         143.3326  138.0557  154.5250 N.2     1  UNL1        0.0158
     18 C         143.3023  136.7809  155.3148 C.2     1  UNL1        0.3714
     19 N         143.5907  135.3584  154.9360 N.2     1  UNL1       -0.0339
     20 C         143.3941  134.5054  156.1540 C.2     1  UNL1        0.2323
     21 C         142.9842  135.4006  157.2857 C.2     1  UNL1        0.0486
     22 C         142.9275  136.8070  156.7670 C.3     1  UNL1        0.2428
     23 C         138.9412  140.3277  163.9833 C.3     1  UNL1        0.0941
     24 C         139.0944  140.2950  165.4751 C.ar    1  UNL1       -0.0045
     25 C         138.3160  139.3029  166.2874 C.ar    1  UNL1       -0.0018
     26 C         138.4693  139.2702  167.7792 C.ar    1  UNL1        0.0111
     27 C         139.4009  140.2296  168.4586 C.ar    1  UNL1        0.0577
     28 CL        139.5541  140.1968  169.9505 Cl      1  UNL1       -0.0822
     29 C         140.1793  141.2217  167.6464 C.ar    1  UNL1        0.0111
     30 C         140.0261  141.2544  166.1545 C.ar    1  UNL1       -0.0018
     31 C         137.6286  140.7203  163.3726 C.3     1  UNL1        0.0256
     32 C         137.5949  141.3719  162.0218 C.3     1  UNL1        0.0194
     33 C         137.9841  142.8130  161.8744 C.3     1  UNL1        0.0722
     34 N         138.5783  143.5519  163.0367 N.3     1  UNL1       -0.2727
     35 C         137.8187  144.1426  164.1875 C.3     1  UNL1        0.0721
     36 C         138.8075  144.7857  165.1142 C.3     1  UNL1        0.0188
     37 C         140.1782  144.5925  164.5362 C.3     1  UNL1        0.0188
     38 C         140.0365  143.8300  163.2523 C.3     1  UNL1        0.0721
@<TRIPOS>BOND
     1     5     6    1
     2     6     1    1
     3     1     2    2
     4     1     3   am
     5     3    23    1
     6    23    31    1
     7    31    32    1
     8    32    33    1
     9    33    34    1
    10    34    35    1
    11    35    36    1
    12    36    37    1
    13    37    38    1
    14    23    24    1
    15    24    25   ar
    16    25    26   ar
    17    26    27   ar
    18    27    28    1
    19    27    29   ar
    20    29    30   ar
    21     6     7    1
    22     7     8    1
    23     8     9    1
    24     9    14    1
    25    14    15    2
    26    15    16    1
    27    16    17    2
    28    17    18    1
    29    18    19    2
    30    19    20    1
    31    20    21    2
    32    21    22    1
    33     9    10    1
    34    10    11    1
    35    11     6    1
    36    38    34    1
    37    30    24   ar
    38    22    14    1
    39    22    18    1
    40     5    12    1
    41     5    13    1
    42     3     4    1
@<TRIPOS>MOLECULE
*****
 38 42 0 0 0
SMALL
GASTEIGER

@<TRIPOS>ATOM
      1 C         141.2574  139.0683  163.9762 C.2     1  UNL1        0.2352
      2 O         140.6768  137.8374  164.6069 O.2     1  UNL1       -0.2737
      3 N         140.6842  140.4169  164.2968 N.am    1  UNL1       -0.3012
      4 H         141.0652  141.2248  163.8829 H       1  UNL1        0.1497
      5 N         143.0438  138.4043  164.2705 N.3     1  UNL1       -0.3162
      6 C         142.4113  138.9508  163.0251 C.3     1  UNL1        0.1166
      7 C         141.3781  139.5382  162.1099 C.3     1  UNL1        0.0739
      8 C         141.7183  139.8182  160.6762 C.3     1  UNL1        0.2039
      9 N         143.0919  139.5109  160.1575 N.pl3   1  UNL1       -0.1931
     10 C         144.1251  138.9235  161.0726 C.3     1  UNL1        0.2039
     11 C         143.7848  138.6435  162.5064 C.3     1  UNL1        0.0739
     12 H         142.3645  138.4187  165.0313 H       1  UNL1        0.1192
     13 H         143.8489  138.9775  164.5227 H       1  UNL1        0.1192
     14 C         143.4322  139.7909  158.7236 C.2     1  UNL1        0.3205
     15 N         144.1966  141.0299  158.3624 N.2     1  UNL1        0.0097
     16 C         144.5368  141.3100  156.9287 C.2     1  UNL1        0.4717
     17 N         144.1127  140.3510  155.8560 N.2     1  UNL1        0.0158
     18 C         143.3483  139.1120  156.2172 C.2     1  UNL1        0.3714
     19 N         142.8008  137.9916  155.3835 N.2     1  UNL1       -0.0339
     20 C         142.1222  137.0191  156.3021 C.2     1  UNL1        0.2323
     21 C         142.2503  137.5385  157.7035 C.2     1  UNL1        0.0486
     22 C         143.0080  138.8319  157.6511 C.3     1  UNL1        0.2428
     23 C         139.5302  140.5345  165.2479 C.3     1  UNL1        0.0941
     24 C         139.7729  140.9181  166.6776 C.ar    1  UNL1       -0.0045
     25 C         140.3917  142.2451  167.0035 C.ar    1  UNL1       -0.0018
     26 C         140.6343  142.6286  168.4332 C.ar    1  UNL1        0.0111
     27 C         140.2581  141.6851  169.5370 C.ar    1  UNL1        0.0577
     28 CL        140.5008  142.0687  170.9667 Cl      1  UNL1       -0.0822
     29 C         139.6393  140.3582  169.2111 C.ar    1  UNL1        0.0111
     30 C         139.3967  139.9746  167.7814 C.ar    1  UNL1       -0.0018
     31 C         138.1337  140.2686  164.7693 C.3     1  UNL1        0.0256
     32 C         137.7463  140.6082  163.3605 C.3     1  UNL1        0.0194
     33 C         137.4731  142.0334  162.9807 C.3     1  UNL1        0.0722
     34 N         138.2196  143.1456  163.6555 N.3     1  UNL1       -0.2727
     35 C         139.5852  143.6432  163.2847 C.3     1  UNL1        0.0721
     36 C         139.9411  144.7608  164.2198 C.3     1  UNL1        0.0188
     37 C         138.7955  144.9539  165.1686 C.3     1  UNL1        0.0188
     38 C         137.7316  143.9557  164.8199 C.3     1  UNL1        0.0721
@<TRIPOS>BOND
     1     5     6    1
     2     6     1    1
     3     1     2    2
     4     1     3   am
     5     3    23    1
     6    23    31    1
     7    31    32    1
     8    32    33    1
     9    33    34    1
    10    34    35    1
    11    35    36    1
    12    36    37    1
    13    37    38    1
    14    23    24    1
    15    24    25   ar
    16    25    26   ar
    17    26    27   ar
    18    27    28    1
    19    27    29   ar
    20    29    30   ar
    21     6     7    1
    22     7     8    1
    23     8     9    1
    24     9    14    1
    25    14    15    2
    26    15    16    1
    27    16    17    2
    28    17    18    1
    29    18    19    2
    30    19    20    1
    31    20    21    2
    32    21    22    1
    33     9    10    1
    34    10    11    1
    35    11     6    1
    36    38    34    1
    37    30    24   ar
    38    22    14    1
    39    22    18    1
    40     5    12    1
    41     5    13    1
    42     3     4    1
@<TRIPOS>MOLECULE
*****
 38 42 0 0 0
SMALL
GASTEIGER

@<TRIPOS>ATOM
      1 C         140.3014  141.9031  164.6053 C.2     1  UNL1        0.2352
      2 O         139.5908  143.0557  165.2506 O.2     1  UNL1       -0.2737
      3 N         140.6132  140.6721  165.4038 N.am    1  UNL1       -0.3012
      4 H         141.0796  139.9156  164.9803 H       1  UNL1        0.1497
      5 N         142.0221  142.2627  163.8125 N.3     1  UNL1       -0.3162
      6 C         140.7005  141.9813  163.1615 C.3     1  UNL1        0.1166
      7 C         139.2401  141.6727  163.0118 C.3     1  UNL1        0.0739
      8 C         138.6379  141.5400  161.6446 C.3     1  UNL1        0.2039
      9 N         139.4959  141.7160  160.4267 N.pl3   1  UNL1       -0.1931
     10 C         140.9561  142.0246  160.5763 C.3     1  UNL1        0.2039
     11 C         141.5584  142.1572  161.9437 C.3     1  UNL1        0.0739
     12 H         141.9126  142.2438  164.8264 H       1  UNL1        0.1192
     13 H         142.3544  143.1827  163.5235 H       1  UNL1        0.1192
     14 C         138.8935  141.5834  159.0594 C.2     1  UNL1        0.3205
     15 N         138.0872  142.7090  158.4826 N.2     1  UNL1        0.0097
     16 C         137.4849  142.5764  157.1154 C.2     1  UNL1        0.4717
     17 N         137.6889  141.3181  156.3247 N.2     1  UNL1        0.0158
     18 C         138.4952  140.1924  156.9015 C.2     1  UNL1        0.3714
     19 N         138.8639  138.8424  156.3615 N.2     1  UNL1       -0.0339
     20 C         139.6941  138.1407  157.3951 C.2     1  UNL1        0.2323
     21 C         139.8385  139.0570  158.5739 C.2     1  UNL1        0.0486
     22 C         139.0976  140.3251  158.2688 C.3     1  UNL1        0.2428
     23 C         140.2142  140.5938  166.8477 C.3     1  UNL1        0.0941
     24 C         140.9857  141.3591  167.8816 C.ar    1  UNL1       -0.0045
     25 C         142.4245  141.0250  168.1433 C.ar    1  UNL1       -0.0018
     26 C         143.1961  141.7903  169.1771 C.ar    1  UNL1        0.0111
     27 C         142.5289  142.8897  169.9493 C.ar    1  UNL1        0.0577
     28 CL        143.3006  143.6550  170.9833 Cl      1  UNL1       -0.0822
     29 C         141.0903  143.2238  169.6877 C.ar    1  UNL1        0.0111
     30 C         140.3186  142.4585  168.6538 C.ar    1  UNL1       -0.0018
     31 C         139.0436  139.7501  167.2576 C.3     1  UNL1        0.0256
     32 C         138.1802  139.1071  166.2130 C.3     1  UNL1        0.0194
     33 C         138.5759  137.7864  165.6221 C.3     1  UNL1        0.0722
     34 N         139.4043  137.7420  164.3724 N.3     1  UNL1       -0.2727
     35 C         140.8472  137.3413  164.2847 C.3     1  UNL1        0.0721
     36 C         141.2699  137.4423  162.8490 C.3     1  UNL1        0.0188
     37 C         140.0882  137.9055  162.0494 C.3     1  UNL1        0.0188
     38 C         138.9354  138.0907  162.9908 C.3     1  UNL1        0.0721
@<TRIPOS>BOND
     1     5     6    1
     2     6     1    1
     3     1     2    2
     4     1     3   am
     5     3    23    1
     6    23    31    1
     7    31    32    1
     8    32    33    1
     9    33    34    1
    10    34    35    1
    11    35    36    1
    12    36    37    1
    13    37    38    1
    14    23    24    1
    15    24    25   ar
    16    25    26   ar
    17    26    27   ar
    18    27    28    1
    19    27    29   ar
    20    29    30   ar
    21     6     7    1
    22     7     8    1
    23     8     9    1
    24     9    14    1
    25    14    15    2
    26    15    16    1
    27    16    17    2
    28    17    18    1
    29    18    19    2
    30    19    20    1
    31    20    21    2
    32    21    22    1
    33     9    10    1
    34    10    11    1
    35    11     6    1
    36    38    34    1
    37    30    24   ar
    38    22    14    1
    39    22    18    1
    40     5    12    1
    41     5    13    1
    42     3     4    1
@<TRIPOS>MOLECULE
*****
 38 42 0 0 0
SMALL
GASTEIGER

@<TRIPOS>ATOM
      1 C         141.2670  142.1903  164.6465 C.2     1  UNL1        0.2352
      2 O         142.3522  142.4496  165.6491 O.2     1  UNL1       -0.2737
      3 N         140.6604  140.8229  164.5345 N.am    1  UNL1       -0.3012
      4 H         139.9482  140.6528  163.8765 H       1  UNL1        0.1497
      5 N         140.2660  143.7815  165.0762 N.3     1  UNL1       -0.3162
      6 C         140.7884  143.2982  163.7559 C.3     1  UNL1        0.1166
      7 C         141.4770  142.4302  162.7447 C.3     1  UNL1        0.0739
      8 C         141.5056  142.8379  161.3016 C.3     1  UNL1        0.2039
      9 N         140.8455  144.1137  160.8694 N.pl3   1  UNL1       -0.1931
     10 C         140.1569  144.9817  161.8804 C.3     1  UNL1        0.2039
     11 C         140.1283  144.5740  163.3237 C.3     1  UNL1        0.0739
     12 H         140.5182  143.1151  165.8062 H       1  UNL1        0.1192
     13 H         139.2506  143.8665  165.0296 H       1  UNL1        0.1192
     14 C         140.8741  144.5214  159.4261 C.2     1  UNL1        0.3205
     15 N         141.8793  145.5283  158.9510 N.2     1  UNL1        0.0097
     16 C         141.9079  145.9360  157.5078 C.2     1  UNL1        0.4717
     17 N         140.9313  145.3368  156.5396 N.2     1  UNL1        0.0158
     18 C         139.9261  144.3299  157.0147 C.2     1  UNL1        0.3714
     19 N         138.8468  143.5740  156.2980 N.2     1  UNL1       -0.0339
     20 C         138.1511  142.6992  157.2984 C.2     1  UNL1        0.2323
     21 C         138.8005  142.9143  158.6333 C.2     1  UNL1        0.0486
     22 C         139.8975  143.9222  158.4580 C.3     1  UNL1        0.2428
     23 C         141.1390  139.7149  165.4252 C.3     1  UNL1        0.0941
     24 C         140.9776  139.8253  166.9124 C.ar    1  UNL1       -0.0045
     25 C         142.1627  139.6335  167.8118 C.ar    1  UNL1       -0.0018
     26 C         142.0012  139.7439  169.2989 C.ar    1  UNL1        0.0111
     27 C         140.6546  140.0460  169.8867 C.ar    1  UNL1        0.0577
     28 CL        140.4932  140.1563  171.3740 Cl      1  UNL1       -0.0822
     29 C         139.4695  140.2377  168.9874 C.ar    1  UNL1        0.0111
     30 C         139.6310  140.1273  167.5002 C.ar    1  UNL1       -0.0018
     31 C         141.7791  138.4965  164.8286 C.3     1  UNL1        0.0256
     32 C         142.0877  138.4538  163.3613 C.3     1  UNL1        0.0194
     33 C         143.5093  138.5428  162.8909 C.3     1  UNL1        0.0722
     34 N         144.2638  139.8323  163.0242 N.3     1  UNL1       -0.2727
     35 C         144.5509  140.8043  161.9183 C.3     1  UNL1        0.0721
     36 C         145.3284  141.9490  162.4974 C.3     1  UNL1        0.0188
     37 C         145.5218  141.6845  163.9612 C.3     1  UNL1        0.0188
     38 C         144.8639  140.3764  164.2867 C.3     1  UNL1        0.0721
@<TRIPOS>BOND
     1     5     6    1
     2     6     1    1
     3     1     2    2
     4     1     3   am
     5     3    23    1
     6    23    31    1
     7    31    32    1
     8    32    33    1
     9    33    34    1
    10    34    35    1
    11    35    36    1
    12    36    37    1
    13    37    38    1
    14    23    24    1
    15    24    25   ar
    16    25    26   ar
    17    26    27   ar
    18    27    28    1
    19    27    29   ar
    20    29    30   ar
    21     6     7    1
    22     7     8    1
    23     8     9    1
    24     9    14    1
    25    14    15    2
    26    15    16    1
    27    16    17    2
    28    17    18    1
    29    18    19    2
    30    19    20    1
    31    20    21    2
    32    21    22    1
    33     9    10    1
    34    10    11    1
    35    11     6    1
    36    38    34    1
    37    30    24   ar
    38    22    14    1
    39    22    18    1
    40     5    12    1
    41     5    13    1
    42     3     4    1
@<TRIPOS>MOLECULE
*****
 38 42 0 0 0
SMALL
GASTEIGER

@<TRIPOS>ATOM
      1 C         142.4310  141.5403  162.5208 C.2     1  UNL1        0.2352
      2 O         143.5053  141.4635  161.4769 O.2     1  UNL1       -0.2737
      3 N         141.1581  142.2803  162.2340 N.am    1  UNL1       -0.3012
      4 H         140.4529  142.3307  162.9191 H       1  UNL1        0.1497
      5 N         142.9564  139.7327  162.9390 N.3     1  UNL1       -0.3162
      6 C         142.6294  140.8773  163.8515 C.3     1  UNL1        0.1166
      7 C         142.2334  142.2523  164.3020 C.3     1  UNL1        0.0739
      8 C         142.1495  142.5667  165.7662 C.3     1  UNL1        0.2039
      9 N         142.4615  141.5061  166.7801 N.pl3   1  UNL1       -0.1931
     10 C         142.8574  140.1312  166.3298 C.3     1  UNL1        0.2039
     11 C         142.9414  139.8168  164.8655 C.3     1  UNL1        0.0739
     12 H         142.8644  140.0342  161.9690 H       1  UNL1        0.1192
     13 H         142.3136  138.9611  163.1177 H       1  UNL1        0.1192
     14 C         142.3775  141.8206  168.2444 C.2     1  UNL1        0.3205
     15 N         143.4725  142.6023  168.9076 N.2     1  UNL1        0.0097
     16 C         143.3886  142.9167  170.3718 C.2     1  UNL1        0.4717
     17 N         142.2096  142.4495  171.1730 N.2     1  UNL1        0.0158
     18 C         141.1146  141.6678  170.5097 C.2     1  UNL1        0.3714
     19 N         139.8400  141.0792  171.0379 N.2     1  UNL1       -0.0339
     20 C         139.1362  140.4010  169.9001 C.2     1  UNL1        0.2323
     21 C         139.9758  140.5704  168.6687 C.2     1  UNL1        0.0486
     22 C         141.1985  141.3533  169.0455 C.3     1  UNL1        0.2428
     23 C         140.9596  142.9433  160.9032 C.3     1  UNL1        0.0941
     24 C         140.3712  142.1702  159.7604 C.ar    1  UNL1       -0.0045
     25 C         141.2674  141.5929  158.7051 C.ar    1  UNL1       -0.0018
     26 C         140.6790  140.8197  157.5623 C.ar    1  UNL1        0.0111
     27 C         139.1944  140.6239  157.4747 C.ar    1  UNL1        0.0577
     28 CL        138.6061  139.8507  156.3318 Cl      1  UNL1       -0.0822
     29 C         138.2982  141.2012  158.5299 C.ar    1  UNL1        0.0111
     30 C         138.8866  141.9744  159.6728 C.ar    1  UNL1       -0.0018
     31 C         141.3494  144.3795  160.7153 C.3     1  UNL1        0.0256
     32 C         140.2900  145.4335  160.5853 C.3     1  UNL1        0.0194
     33 C         139.6406  145.9995  161.8132 C.3     1  UNL1        0.0722
     34 N         139.1267  145.0801  162.8813 N.3     1  UNL1       -0.2727
     35 C         139.7130  144.9048  164.2508 C.3     1  UNL1        0.0721
     36 C         138.8849  143.8909  164.9832 C.3     1  UNL1        0.0188
     37 C         137.7867  143.4397  164.0663 C.3     1  UNL1        0.0188
     38 C         137.9362  144.1746  162.7673 C.3     1  UNL1        0.0721
@<TRIPOS>BOND
     1     5     6    1
     2     6     1    1
     3     1     2    2
     4     1     3   am
     5     3    23    1
     6    23    31    1
     7    31    32    1
     8    32    33    1
     9    33    34    1
    10    34    35    1
    11    35    36    1
    12    36    37    1
    13    37    38    1
    14    23    24    1
    15    24    25   ar
    16    25    26   ar
    17    26    27   ar
    18    27    28    1
    19    27    29   ar
    20    29    30   ar
    21     6     7    1
    22     7     8    1
    23     8     9    1
    24     9    14    1
    25    14    15    2
    26    15    16    1
    27    16    17    2
    28    17    18    1
    29    18    19    2
    30    19    20    1
    31    20    21    2
    32    21    22    1
    33     9    10    1
    34    10    11    1
    35    11     6    1
    36    38    34    1
    37    30    24   ar
    38    22    14    1
    39    22    18    1
    40     5    12    1
    41     5    13    1
    42     3     4    1
@<TRIPOS>MOLECULE
*****
 38 42 0 0 0
SMALL
GASTEIGER

@<TRIPOS>ATOM
      1 C         140.6222  140.8670  164.2246 C.2     1  UNL1        0.2352
      2 O         140.1539  139.5844  164.8458 O.2     1  UNL1       -0.2737
      3 N         142.0092  141.3694  164.4965 N.am    1  UNL1       -0.3012
      4 H         142.3166  142.2112  164.0888 H       1  UNL1        0.1497
      5 N         138.7910  141.4064  164.4974 N.3     1  UNL1       -0.3162
      6 C         139.7036  141.6472  163.3317 C.3     1  UNL1        0.1166
      7 C         140.9353  141.6170  162.4759 C.3     1  UNL1        0.0739
      8 C         140.9315  142.2834  161.1322 C.3     1  UNL1        0.2039
      9 N         139.6959  142.9800  160.6440 N.pl3   1  UNL1       -0.1931
     10 C         138.4643  143.0102  161.4996 C.3     1  UNL1        0.2039
     11 C         138.4682  142.3437  162.8435 C.3     1  UNL1        0.0739
     12 H         139.2853  140.8711  165.2112 H       1  UNL1        0.1192
     13 H         137.9726  140.8833  164.1861 H       1  UNL1        0.1192
     14 C         139.6921  143.6464  159.3001 C.2     1  UNL1        0.3205
     15 N         140.3896  144.9611  159.1129 N.2     1  UNL1        0.0097
     16 C         140.3858  145.6275  157.7692 C.2     1  UNL1        0.4717
     17 N         139.6844  144.9792  156.6124 N.2     1  UNL1        0.0158
     18 C         138.9869  143.6646  156.7996 C.2     1  UNL1        0.3714
     19 N         138.2176  142.7927  155.8520 N.2     1  UNL1       -0.0339
     20 C         137.7460  141.5874  156.6102 C.2     1  UNL1        0.2323
     21 C         138.2238  141.7144  158.0264 C.2     1  UNL1        0.0486
     22 C         138.9907  142.9982  158.1435 C.3     1  UNL1        0.2428
     23 C         142.9279  140.5892  165.3895 C.3     1  UNL1        0.0941
     24 C         142.7608  140.6550  166.8787 C.ar    1  UNL1       -0.0045
     25 C         142.7962  141.9808  167.5796 C.ar    1  UNL1       -0.0018
     26 C         142.6291  142.0466  169.0688 C.ar    1  UNL1        0.0111
     27 C         142.4265  140.7866  169.8571 C.ar    1  UNL1        0.0577
     28 CL        142.2594  140.8524  171.3463 Cl      1  UNL1       -0.0822
     29 C         142.3910  139.4609  169.1563 C.ar    1  UNL1        0.0111
     30 C         142.5581  139.3950  167.6670 C.ar    1  UNL1       -0.0018
     31 C         144.0137  139.7433  164.7933 C.3     1  UNL1        0.0256
     32 C         144.8702  140.2905  163.6900 C.3     1  UNL1        0.0194
     33 C         145.5859  141.5959  163.8735 C.3     1  UNL1        0.0722
     34 N         144.8331  142.8875  163.7508 N.3     1  UNL1       -0.2727
     35 C         144.2990  143.4796  162.4803 C.3     1  UNL1        0.0721
     36 C         143.6181  144.7719  162.8216 C.3     1  UNL1        0.0188
     37 C         143.7313  144.9784  164.3030 C.3     1  UNL1        0.0188
     38 C         144.4823  143.8139  164.8773 C.3     1  UNL1        0.0721
@<TRIPOS>BOND
     1     5     6    1
     2     6     1    1
     3     1     2    2
     4     1     3   am
     5     3    23    1
     6    23    31    1
     7    31    32    1
     8    32    33    1
     9    33    34    1
    10    34    35    1
    11    35    36    1
    12    36    37    1
    13    37    38    1
    14    23    24    1
    15    24    25   ar
    16    25    26   ar
    17    26    27   ar
    18    27    28    1
    19    27    29   ar
    20    29    30   ar
    21     6     7    1
    22     7     8    1
    23     8     9    1
    24     9    14    1
    25    14    15    2
    26    15    16    1
    27    16    17    2
    28    17    18    1
    29    18    19    2
    30    19    20    1
    31    20    21    2
    32    21    22    1
    33     9    10    1
    34    10    11    1
    35    11     6    1
    36    38    34    1
    37    30    24   ar
    38    22    14    1
    39    22    18    1
    40     5    12    1
    41     5    13    1
    42     3     4    1
