@<TRIPOS>MOLECULE
*****
 31 35 0 0 0
SMALL
GASTEIGER

@<TRIPOS>ATOM
      1 C         141.4210  138.1914  163.1548 C.ar    1  UNL1        0.1515
      2 N         142.6462  138.0068  162.3091 N.ar    1  UNL1       -0.2060
      3 C         143.9716  138.5219  162.7865 C.ar    1  UNL1        0.2211
      4 N         144.0719  139.2217  164.1095 N.ar    1  UNL1       -0.1422
      5 N         142.8468  139.4063  164.9551 N.ar    1  UNL1       -0.2242
      6 C         142.6388  140.0511  166.2933 C.ar    1  UNL1        0.1049
      7 C         141.1848  139.9345  166.6431 C.ar    1  UNL1        0.0718
      8 C         140.4942  139.2176  165.5210 C.ar    1  UNL1        0.0040
      9 C         141.5214  138.8912  164.4777 C.ar    1  UNL1        0.1107
     10 C         140.5354  140.4451  167.8951 C.ar    1  UNL1        0.2508
     11 N         139.5469  139.7002  168.7425 N.ar    1  UNL1       -0.1072
     12 N         139.1611  140.5850  169.8906 N.ar    1  UNL1       -0.1114
     13 C         139.9112  141.8766  169.7529 C.ar    1  UNL1        0.2270
     14 C         139.8267  143.0490  170.6849 C.3     1  UNL1        0.0967
     15 O         140.7605  141.7902  168.5197 O.2     1  UNL1       -0.4195
     16 C         139.0330  138.8854  165.4539 C.3     1  UNL1        0.0241
     17 C         138.0278  139.9707  165.2054 C.3     1  UNL1        0.0047
     18 C         138.5770  137.4680  165.6352 C.3     1  UNL1        0.0047
     19 N         140.0956  137.6762  162.6774 N.pl3   1  UNL1       -0.2955
     20 H         139.7147  136.8582  163.0711 H       1  UNL1        0.1537
     21 C         138.3950  140.9957  155.7700 C.3     1  UNL1        0.0521
     22 C         138.4568  140.4503  157.1660 C.ar    1  UNL1        0.0611
     23 C         139.6120  139.7109  157.7733 C.ar    1  UNL1        0.0178
     24 C         139.2435  139.3521  159.1824 C.ar    1  UNL1        0.0364
     25 C         139.9885  138.6209  160.2595 C.ar    1  UNL1        0.0192
     26 C         139.3506  138.4075  161.6002 C.ar    1  UNL1        0.0668
     27 C         137.9677  138.9252  161.8638 C.ar    1  UNL1        0.0883
     28 N         137.2226  139.6564  160.7866 N.ar    1  UNL1       -0.3364
     29 C         137.8605  139.8699  159.4459 C.ar    1  UNL1        0.1402
     30 N         137.3744  140.5486  158.1997 N.ar    1  UNL1       -0.2328
     31 H         136.3150  139.9962  160.9596 H       1  UNL1        0.1674
@<TRIPOS>BOND
     1    21    22    1
     2    22    23   ar
     3    23    24   ar
     4    24    25   ar
     5    25    26   ar
     6    26    19    1
     7    19     1    1
     8     1     2   ar
     9     2     3   ar
    10     3     4   ar
    11     4     5   ar
    12     5     6   ar
    13     6     7   ar
    14     7    10    1
    15    10    11   ar
    16    11    12   ar
    17    12    13   ar
    18    13    14    1
    19    13    15   ar
    20     7     8   ar
    21     8    16    1
    22    16    17    1
    23    16    18    1
    24     8     9   ar
    25    26    27   ar
    26    27    28   ar
    27    28    29   ar
    28    29    30   ar
    29    30    22   ar
    30    29    24    1
    31     9     1   ar
    32     9     5   ar
    33    15    10   ar
    34    19    20    1
    35    28    31    1
@<TRIPOS>MOLECULE
*****
 31 35 0 0 0
SMALL
GASTEIGER

@<TRIPOS>ATOM
      1 C         141.0706  138.6485  162.6681 C.ar    1  UNL1        0.1515
      2 N         141.7227  138.1246  161.4230 N.ar    1  UNL1       -0.2060
      3 C         143.1942  137.8341  161.4124 C.ar    1  UNL1        0.2211
      4 N         144.0137  138.0675  162.6469 N.ar    1  UNL1       -0.1422
      5 N         143.3616  138.5914  163.8920 N.ar    1  UNL1       -0.2242
      6 C         143.9082  138.9175  165.2503 C.ar    1  UNL1        0.1049
      7 C         142.7745  139.4095  166.1004 C.ar    1  UNL1        0.0718
      8 C         141.5272  139.3875  165.2674 C.ar    1  UNL1        0.0040
      9 C         141.8900  138.8819  163.9026 C.ar    1  UNL1        0.1107
     10 C         142.8711  139.8467  167.5320 C.ar    1  UNL1        0.2508
     11 N         143.0035  138.9440  168.7225 N.ar    1  UNL1       -0.1072
     12 N         143.0666  139.8028  169.9507 N.ar    1  UNL1       -0.1114
     13 C         142.9731  141.2363  169.5192 C.ar    1  UNL1        0.2270
     14 C         142.9963  142.4327  170.4238 C.3     1  UNL1        0.0967
     15 O         142.8523  141.2635  168.0244 O.2     1  UNL1       -0.4195
     16 C         140.1575  139.7989  165.7199 C.3     1  UNL1        0.0241
     17 C         139.8436  141.2495  165.9371 C.3     1  UNL1        0.0047
     18 C         139.1017  138.7597  165.9552 C.3     1  UNL1        0.0047
     19 N         139.5990  138.9391  162.6787 N.pl3   1  UNL1       -0.2955
     20 H         138.9514  138.1987  162.7208 H       1  UNL1        0.1537
     21 C         139.5201  146.7239  161.6719 C.3     1  UNL1        0.0521
     22 C         139.2585  145.2707  161.9362 C.ar    1  UNL1        0.0611
     23 C         140.2558  144.1577  161.8077 C.ar    1  UNL1        0.0178
     24 C         139.5673  142.8745  162.1675 C.ar    1  UNL1        0.0364
     25 C         140.0521  141.4560  162.2209 C.ar    1  UNL1        0.0192
     26 C         139.1142  140.3576  162.6253 C.ar    1  UNL1        0.0668
     27 C         137.6913  140.6776  162.9762 C.ar    1  UNL1        0.0883
     28 N         137.2064  142.0960  162.9227 N.ar    1  UNL1       -0.3364
     29 C         138.1444  143.1944  162.5184 C.ar    1  UNL1        0.1402
     30 N         137.9536  144.6754  162.3755 N.ar    1  UNL1       -0.2328
     31 H         136.2726  142.3060  163.1530 H       1  UNL1        0.1674
@<TRIPOS>BOND
     1    21    22    1
     2    22    23   ar
     3    23    24   ar
     4    24    25   ar
     5    25    26   ar
     6    26    19    1
     7    19     1    1
     8     1     2   ar
     9     2     3   ar
    10     3     4   ar
    11     4     5   ar
    12     5     6   ar
    13     6     7   ar
    14     7    10    1
    15    10    11   ar
    16    11    12   ar
    17    12    13   ar
    18    13    14    1
    19    13    15   ar
    20     7     8   ar
    21     8    16    1
    22    16    17    1
    23    16    18    1
    24     8     9   ar
    25    26    27   ar
    26    27    28   ar
    27    28    29   ar
    28    29    30   ar
    29    30    22   ar
    30    29    24    1
    31     9     1   ar
    32     9     5   ar
    33    15    10   ar
    34    19    20    1
    35    28    31    1
@<TRIPOS>MOLECULE
*****
 31 35 0 0 0
SMALL
GASTEIGER

@<TRIPOS>ATOM
      1 C         138.2123  141.7833  163.5889 C.ar    1  UNL1        0.1515
      2 N         137.9397  143.0403  162.8170 N.ar    1  UNL1       -0.2060
      3 C         138.3464  144.3695  163.3806 C.ar    1  UNL1        0.2211
      4 N         139.0257  144.4418  164.7160 N.ar    1  UNL1       -0.1422
      5 N         139.2982  143.1849  165.4879 N.ar    1  UNL1       -0.2242
      6 C         139.9466  142.9452  166.8191 C.ar    1  UNL1        0.1049
      7 C         139.9406  141.4677  167.0783 C.ar    1  UNL1        0.0718
      8 C         139.2885  140.7944  165.9073 C.ar    1  UNL1        0.0040
      9 C         138.8915  141.8556  164.9243 C.ar    1  UNL1        0.1107
     10 C         140.4902  140.7838  168.2950 C.ar    1  UNL1        0.2508
     11 N         139.6996  139.9921  169.2940 N.ar    1  UNL1       -0.1072
     12 N         140.6476  139.4905  170.3426 N.ar    1  UNL1       -0.1114
     13 C         142.0241  139.9722  169.9916 C.ar    1  UNL1        0.2270
     14 C         143.2778  139.7020  170.7697 C.3     1  UNL1        0.0967
     15 O         141.9268  140.7715  168.7262 O.2     1  UNL1       -0.4195
     16 C         139.0715  139.3188  165.7472 C.3     1  UNL1        0.0241
     17 C         137.8705  138.6660  166.3648 C.3     1  UNL1        0.0047
     18 C         140.0556  138.4960  164.9696 C.3     1  UNL1        0.0047
     19 N         137.8055  140.4540  163.0254 N.pl3   1  UNL1       -0.2955
     20 H         137.1851  139.8762  163.5258 H       1  UNL1        0.1537
     21 C         142.6793  137.5948  157.5761 C.3     1  UNL1        0.0521
     22 C         141.5643  138.1709  158.3976 C.ar    1  UNL1        0.0611
     23 C         141.5998  138.4287  159.8749 C.ar    1  UNL1        0.0178
     24 C         140.2754  139.0074  160.2764 C.ar    1  UNL1        0.0364
     25 C         139.7368  139.4563  161.6024 C.ar    1  UNL1        0.0192
     26 C         138.3442  140.0050  161.6993 C.ar    1  UNL1        0.0668
     27 C         137.4902  140.1049  160.4702 C.ar    1  UNL1        0.0883
     28 N         138.0288  139.6560  159.1442 N.ar    1  UNL1       -0.3364
     29 C         139.4214  139.1072  159.0473 C.ar    1  UNL1        0.1402
     30 N         140.2180  138.5902  157.8862 N.ar    1  UNL1       -0.2328
     31 H         137.4683  139.7215  158.3375 H       1  UNL1        0.1674
@<TRIPOS>BOND
     1    21    22    1
     2    22    23   ar
     3    23    24   ar
     4    24    25   ar
     5    25    26   ar
     6    26    19    1
     7    19     1    1
     8     1     2   ar
     9     2     3   ar
    10     3     4   ar
    11     4     5   ar
    12     5     6   ar
    13     6     7   ar
    14     7    10    1
    15    10    11   ar
    16    11    12   ar
    17    12    13   ar
    18    13    14    1
    19    13    15   ar
    20     7     8   ar
    21     8    16    1
    22    16    17    1
    23    16    18    1
    24     8     9   ar
    25    26    27   ar
    26    27    28   ar
    27    28    29   ar
    28    29    30   ar
    29    30    22   ar
    30    29    24    1
    31     9     1   ar
    32     9     5   ar
    33    15    10   ar
    34    19    20    1
    35    28    31    1
@<TRIPOS>MOLECULE
*****
 31 35 0 0 0
SMALL
GASTEIGER

@<TRIPOS>ATOM
      1 C         138.3693  141.4350  164.0832 C.ar    1  UNL1        0.1515
      2 N         137.6147  142.7166  164.2788 N.ar    1  UNL1       -0.2060
      3 C         137.6677  143.7860  163.2282 C.ar    1  UNL1        0.2211
      4 N         138.4754  143.5737  161.9821 N.ar    1  UNL1       -0.1422
      5 N         139.2299  142.2922  161.7866 N.ar    1  UNL1       -0.2242
      6 C         140.1041  141.8024  160.6704 C.ar    1  UNL1        0.1049
      7 C         140.5914  140.4304  161.0311 C.ar    1  UNL1        0.0718
      8 C         140.0183  140.0722  162.3702 C.ar    1  UNL1        0.0040
      9 C         139.1769  141.2228  162.8372 C.ar    1  UNL1        0.1107
     10 C         141.4933  139.5679  160.1988 C.ar    1  UNL1        0.2508
     11 N         142.9548  139.3307  160.4393 N.ar    1  UNL1       -0.1072
     12 N         143.4568  138.4075  159.3690 N.ar    1  UNL1       -0.1114
     13 C         142.3056  138.0742  158.4670 C.ar    1  UNL1        0.2270
     14 C         142.3587  137.1805  157.2633 C.3     1  UNL1        0.0967
     15 O         141.0922  138.7913  158.9798 O.2     1  UNL1       -0.4195
     16 C         140.2465  138.7887  163.1122 C.3     1  UNL1        0.0241
     17 C         141.4640  138.6264  163.9733 C.3     1  UNL1        0.0047
     18 C         139.2573  137.6674  162.9930 C.3     1  UNL1        0.0047
     19 N         138.3162  140.3656  165.1338 N.pl3   1  UNL1       -0.2955
     20 H         137.7037  139.6021  165.0285 H       1  UNL1        0.1537
     21 C         144.1718  142.4993  169.9068 C.3     1  UNL1        0.0521
     22 C         142.9691  141.9279  169.2163 C.ar    1  UNL1        0.0611
     23 C         142.5233  142.2407  167.8187 C.ar    1  UNL1        0.0178
     24 C         141.2796  141.4494  167.5408 C.ar    1  UNL1        0.0364
     25 C         140.3995  141.3555  166.3298 C.ar    1  UNL1        0.0192
     26 C         139.1965  140.4596  166.3448 C.ar    1  UNL1        0.0668
     27 C         138.8737  139.6577  167.5706 C.ar    1  UNL1        0.0883
     28 N         139.7539  139.7517  168.7816 N.ar    1  UNL1       -0.3364
     29 C         140.9568  140.6475  168.7666 C.ar    1  UNL1        0.1402
     30 N         142.0010  140.9432  169.8022 N.ar    1  UNL1       -0.2328
     31 H         139.5420  139.2253  169.5861 H       1  UNL1        0.1674
@<TRIPOS>BOND
     1    21    22    1
     2    22    23   ar
     3    23    24   ar
     4    24    25   ar
     5    25    26   ar
     6    26    19    1
     7    19     1    1
     8     1     2   ar
     9     2     3   ar
    10     3     4   ar
    11     4     5   ar
    12     5     6   ar
    13     6     7   ar
    14     7    10    1
    15    10    11   ar
    16    11    12   ar
    17    12    13   ar
    18    13    14    1
    19    13    15   ar
    20     7     8   ar
    21     8    16    1
    22    16    17    1
    23    16    18    1
    24     8     9   ar
    25    26    27   ar
    26    27    28   ar
    27    28    29   ar
    28    29    30   ar
    29    30    22   ar
    30    29    24    1
    31     9     1   ar
    32     9     5   ar
    33    15    10   ar
    34    19    20    1
    35    28    31    1
@<TRIPOS>MOLECULE
*****
 31 35 0 0 0
SMALL
GASTEIGER

@<TRIPOS>ATOM
      1 C         138.9445  139.9295  164.0476 C.ar    1  UNL1        0.1515
      2 N         138.8154  138.4359  164.1002 N.ar    1  UNL1       -0.2060
      3 C         139.1759  137.6093  162.9016 C.ar    1  UNL1        0.2211
      4 N         139.6657  138.2762  161.6503 N.ar    1  UNL1       -0.1422
      5 N         139.7948  139.7697  161.5978 N.ar    1  UNL1       -0.2242
      6 C         140.2460  140.7005  160.5115 C.ar    1  UNL1        0.1049
      7 C         140.1643  142.1024  161.0387 C.ar    1  UNL1        0.0718
      8 C         139.6626  142.0380  162.4509 C.ar    1  UNL1        0.0040
      9 C         139.4342  140.5963  162.7964 C.ar    1  UNL1        0.1107
     10 C         140.5217  143.3497  160.2860 C.ar    1  UNL1        0.2508
     11 N         141.6795  144.2565  160.5812 N.ar    1  UNL1       -0.1072
     12 N         141.6573  145.3764  159.5836 N.ar    1  UNL1       -0.1114
     13 C         140.4857  145.1617  158.6718 C.ar    1  UNL1        0.2270
     14 C         140.0861  146.0447  157.5269 C.3     1  UNL1        0.0967
     15 O         139.7839  143.9092  159.1059 O.2     1  UNL1       -0.4195
     16 C         139.4301  143.2096  163.3582 C.3     1  UNL1        0.0241
     17 C         140.5923  143.8851  164.0238 C.3     1  UNL1        0.0047
     18 C         138.0354  143.7058  163.6001 C.3     1  UNL1        0.0047
     19 N         138.5839  140.7561  165.2462 N.pl3   1  UNL1       -0.2955
     20 H         137.7640  141.3011  165.2397 H       1  UNL1        0.1537
     21 C         144.4545  142.5241  170.1486 C.3     1  UNL1        0.0521
     22 C         143.2523  142.0027  169.4186 C.ar    1  UNL1        0.0611
     23 C         142.7924  142.4327  168.0572 C.ar    1  UNL1        0.0178
     24 C         141.5548  141.6555  167.7190 C.ar    1  UNL1        0.0364
     25 C         140.6662  141.6592  166.5106 C.ar    1  UNL1        0.0192
     26 C         139.4726  140.7525  166.4546 C.ar    1  UNL1        0.0668
     27 C         139.1677  139.8420  167.6071 C.ar    1  UNL1        0.0883
     28 N         140.0563  139.8383  168.8155 N.ar    1  UNL1       -0.3364
     29 C         141.2499  140.7451  168.8714 C.ar    1  UNL1        0.1402
     30 N         142.2990  140.9596  169.9218 N.ar    1  UNL1       -0.2328
     31 H         139.8562  139.2408  169.5718 H       1  UNL1        0.1674
@<TRIPOS>BOND
     1    21    22    1
     2    22    23   ar
     3    23    24   ar
     4    24    25   ar
     5    25    26   ar
     6    26    19    1
     7    19     1    1
     8     1     2   ar
     9     2     3   ar
    10     3     4   ar
    11     4     5   ar
    12     5     6   ar
    13     6     7   ar
    14     7    10    1
    15    10    11   ar
    16    11    12   ar
    17    12    13   ar
    18    13    14    1
    19    13    15   ar
    20     7     8   ar
    21     8    16    1
    22    16    17    1
    23    16    18    1
    24     8     9   ar
    25    26    27   ar
    26    27    28   ar
    27    28    29   ar
    28    29    30   ar
    29    30    22   ar
    30    29    24    1
    31     9     1   ar
    32     9     5   ar
    33    15    10   ar
    34    19    20    1
    35    28    31    1
@<TRIPOS>MOLECULE
*****
 31 35 0 0 0
SMALL
GASTEIGER

@<TRIPOS>ATOM
      1 C         138.3211  142.0687  162.2289 C.ar    1  UNL1        0.1515
      2 N         137.6820  141.1465  161.2332 N.ar    1  UNL1       -0.2060
      3 C         137.5772  139.6797  161.5291 C.ar    1  UNL1        0.2211
      4 N         138.1115  139.1351  162.8207 N.ar    1  UNL1       -0.1422
      5 N         138.7505  140.0573  163.8162 N.ar    1  UNL1       -0.2242
      6 C         139.3624  139.8114  165.1635 C.ar    1  UNL1        0.1049
      7 C         139.8454  141.1261  165.7003 C.ar    1  UNL1        0.0718
      8 C         139.5320  142.1846  164.6847 C.ar    1  UNL1        0.0040
      9 C         138.8553  141.5241  163.5203 C.ar    1  UNL1        0.1107
     10 C         140.5228  141.3441  167.0207 C.ar    1  UNL1        0.2508
     11 N         139.9139  141.1158  168.3724 N.ar    1  UNL1       -0.1072
     12 N         140.9428  141.4592  169.4083 N.ar    1  UNL1       -0.1114
     13 C         142.1877  141.8999  168.6969 C.ar    1  UNL1        0.2270
     14 C         143.4675  142.3353  169.3471 C.3     1  UNL1        0.0967
     15 O         141.9281  141.8287  167.2214 O.2     1  UNL1       -0.4195
     16 C         139.8410  143.6470  164.8113 C.3     1  UNL1        0.0241
     17 C         138.7703  144.6052  165.2420 C.3     1  UNL1        0.0047
     18 C         141.2206  144.1511  164.5072 C.3     1  UNL1        0.0047
     19 N         138.4259  143.5355  161.9330 N.pl3   1  UNL1       -0.2955
     20 H         137.8164  144.1712  162.3730 H       1  UNL1        0.1537
     21 C         142.6786  144.3671  155.3873 C.3     1  UNL1        0.0521
     22 C         142.0366  144.4155  156.7421 C.ar    1  UNL1        0.0611
     23 C         140.8867  143.5700  157.2036 C.ar    1  UNL1        0.0178
     24 C         140.5712  143.9498  158.6200 C.ar    1  UNL1        0.0364
     25 C         139.5378  143.4517  159.5863 C.ar    1  UNL1        0.0192
     26 C         139.4593  144.0337  160.9665 C.ar    1  UNL1        0.0668
     27 C         140.4142  145.1139  161.3804 C.ar    1  UNL1        0.0883
     28 N         141.4476  145.6121  160.4141 N.ar    1  UNL1       -0.3364
     29 C         141.5261  145.0300  159.0339 C.ar    1  UNL1        0.1402
     30 N         142.4318  145.3178  157.8733 N.ar    1  UNL1       -0.2328
     31 H         142.0744  146.3210  160.6858 H       1  UNL1        0.1674
@<TRIPOS>BOND
     1    21    22    1
     2    22    23   ar
     3    23    24   ar
     4    24    25   ar
     5    25    26   ar
     6    26    19    1
     7    19     1    1
     8     1     2   ar
     9     2     3   ar
    10     3     4   ar
    11     4     5   ar
    12     5     6   ar
    13     6     7   ar
    14     7    10    1
    15    10    11   ar
    16    11    12   ar
    17    12    13   ar
    18    13    14    1
    19    13    15   ar
    20     7     8   ar
    21     8    16    1
    22    16    17    1
    23    16    18    1
    24     8     9   ar
    25    26    27   ar
    26    27    28   ar
    27    28    29   ar
    28    29    30   ar
    29    30    22   ar
    30    29    24    1
    31     9     1   ar
    32     9     5   ar
    33    15    10   ar
    34    19    20    1
    35    28    31    1
@<TRIPOS>MOLECULE
*****
 31 35 0 0 0
SMALL
GASTEIGER

@<TRIPOS>ATOM
      1 C         143.5454  142.8308  164.0686 C.ar    1  UNL1        0.1515
      2 N         145.0021  142.8838  163.7144 N.ar    1  UNL1       -0.2060
      3 C         145.8116  141.6214  163.6785 C.ar    1  UNL1        0.2211
      4 N         145.1644  140.3061  163.9967 N.ar    1  UNL1       -0.1422
      5 N         143.7078  140.2532  164.3509 N.ar    1  UNL1       -0.2242
      6 C         142.8027  139.1119  164.7089 C.ar    1  UNL1        0.1049
      7 C         141.4339  139.6688  164.9662 C.ar    1  UNL1        0.0718
      8 C         141.4930  141.1543  164.7671 C.ar    1  UNL1        0.0040
      9 C         142.8983  141.5155  164.3868 C.ar    1  UNL1        0.1107
     10 C         140.2193  138.8789  165.3544 C.ar    1  UNL1        0.2508
     11 N         139.7191  137.6392  164.6739 N.ar    1  UNL1       -0.1072
     12 N         138.4823  137.1841  165.3901 N.ar    1  UNL1       -0.1114
     13 C         138.2180  138.1425  166.5134 C.ar    1  UNL1        0.2270
     14 C         137.0800  138.0667  167.4877 C.3     1  UNL1        0.0967
     15 O         139.2915  139.1899  166.4913 O.2     1  UNL1       -0.4195
     16 C         140.3478  142.1108  164.9213 C.3     1  UNL1        0.0241
     17 C         140.2020  142.9091  166.1828 C.3     1  UNL1        0.0047
     18 C         139.3485  142.2690  163.8139 C.3     1  UNL1        0.0047
     19 N         142.7360  144.0931  164.1046 N.pl3   1  UNL1       -0.2955
     20 H         142.6897  144.6248  164.9319 H       1  UNL1        0.1537
     21 C         140.3111  144.5791  156.6543 C.3     1  UNL1        0.0521
     22 C         140.5892  144.7020  158.1232 C.ar    1  UNL1        0.0611
     23 C         141.5586  143.8703  158.9096 C.ar    1  UNL1        0.0178
     24 C         141.5153  144.3325  160.3360 C.ar    1  UNL1        0.0364
     25 C         142.2543  143.8802  161.5604 C.ar    1  UNL1        0.0192
     26 C         141.9970  144.5454  162.8800 C.ar    1  UNL1        0.0668
     27 C         141.0008  145.6627  162.9752 C.ar    1  UNL1        0.0883
     28 N         140.2618  146.1150  161.7507 N.ar    1  UNL1       -0.3364
     29 C         140.5191  145.4498  160.4311 C.ar    1  UNL1        0.1402
     30 N         139.9468  145.6782  159.0635 N.ar    1  UNL1       -0.2328
     31 H         139.6080  146.8483  161.8131 H       1  UNL1        0.1674
@<TRIPOS>BOND
     1    21    22    1
     2    22    23   ar
     3    23    24   ar
     4    24    25   ar
     5    25    26   ar
     6    26    19    1
     7    19     1    1
     8     1     2   ar
     9     2     3   ar
    10     3     4   ar
    11     4     5   ar
    12     5     6   ar
    13     6     7   ar
    14     7    10    1
    15    10    11   ar
    16    11    12   ar
    17    12    13   ar
    18    13    14    1
    19    13    15   ar
    20     7     8   ar
    21     8    16    1
    22    16    17    1
    23    16    18    1
    24     8     9   ar
    25    26    27   ar
    26    27    28   ar
    27    28    29   ar
    28    29    30   ar
    29    30    22   ar
    30    29    24    1
    31     9     1   ar
    32     9     5   ar
    33    15    10   ar
    34    19    20    1
    35    28    31    1
@<TRIPOS>MOLECULE
*****
 31 35 0 0 0
SMALL
GASTEIGER

@<TRIPOS>ATOM
      1 C         142.5898  143.1702  163.5727 C.ar    1  UNL1        0.1515
      2 N         143.8362  142.5566  164.1385 N.ar    1  UNL1       -0.2060
      3 C         144.9529  142.1484  163.2241 C.ar    1  UNL1        0.2211
      4 N         144.8233  142.3537  161.7438 N.ar    1  UNL1       -0.1422
      5 N         143.5770  142.9673  161.1781 N.ar    1  UNL1       -0.2242
      6 C         143.1665  143.2909  159.7721 C.ar    1  UNL1        0.1049
      7 C         141.7961  143.8991  159.8175 C.ar    1  UNL1        0.0718
      8 C         141.3596  143.9514  161.2516 C.ar    1  UNL1        0.0040
      9 C         142.4602  143.3756  162.0925 C.ar    1  UNL1        0.1107
     10 C         141.0017  144.3719  158.6363 C.ar    1  UNL1        0.2508
     11 N         140.3394  143.4984  157.6124 N.ar    1  UNL1       -0.1072
     12 N         139.6585  144.3878  156.6149 N.ar    1  UNL1       -0.1114
     13 C         139.9000  145.8111  157.0222 C.ar    1  UNL1        0.2270
     14 C         139.3993  147.0303  156.3059 C.3     1  UNL1        0.0967
     15 O         140.7301  145.8013  158.2714 O.2     1  UNL1       -0.4195
     16 C         140.0520  144.4858  161.7563 C.3     1  UNL1        0.0241
     17 C         138.8907  143.5582  161.9585 C.3     1  UNL1        0.0047
     18 C         139.9058  145.9476  162.0588 C.3     1  UNL1        0.0047
     19 N         141.4730  143.5784  164.4871 N.pl3   1  UNL1       -0.2955
     20 H         141.1266  144.4996  164.4603 H       1  UNL1        0.1537
     21 C         137.0981  137.7180  167.3399 C.3     1  UNL1        0.0521
     22 C         138.0370  138.8546  167.0632 C.ar    1  UNL1        0.0611
     23 C         138.2262  139.5404  165.7426 C.ar    1  UNL1        0.0178
     24 C         139.2578  140.6146  165.9217 C.ar    1  UNL1        0.0364
     25 C         139.8467  141.6098  164.9664 C.ar    1  UNL1        0.0192
     26 C         140.8840  142.5831  165.4424 C.ar    1  UNL1        0.0668
     27 C         141.3324  142.5612  166.8737 C.ar    1  UNL1        0.0883
     28 N         140.7434  141.5659  167.8289 N.ar    1  UNL1       -0.3364
     29 C         139.7061  140.5926  167.3530 C.ar    1  UNL1        0.1402
     30 N         138.9517  139.5049  168.0584 N.ar    1  UNL1       -0.2328
     31 H         141.0377  141.5515  168.7683 H       1  UNL1        0.1674
@<TRIPOS>BOND
     1    21    22    1
     2    22    23   ar
     3    23    24   ar
     4    24    25   ar
     5    25    26   ar
     6    26    19    1
     7    19     1    1
     8     1     2   ar
     9     2     3   ar
    10     3     4   ar
    11     4     5   ar
    12     5     6   ar
    13     6     7   ar
    14     7    10    1
    15    10    11   ar
    16    11    12   ar
    17    12    13   ar
    18    13    14    1
    19    13    15   ar
    20     7     8   ar
    21     8    16    1
    22    16    17    1
    23    16    18    1
    24     8     9   ar
    25    26    27   ar
    26    27    28   ar
    27    28    29   ar
    28    29    30   ar
    29    30    22   ar
    30    29    24    1
    31     9     1   ar
    32     9     5   ar
    33    15    10   ar
    34    19    20    1
    35    28    31    1
@<TRIPOS>MOLECULE
*****
 31 35 0 0 0
SMALL
GASTEIGER

@<TRIPOS>ATOM
      1 C         141.7833  144.0309  162.7710 C.ar    1  UNL1        0.1515
      2 N         143.0252  144.1523  161.9385 N.ar    1  UNL1       -0.2060
      3 C         144.3493  143.7270  162.5005 C.ar    1  UNL1        0.2211
      4 N         144.4315  143.1803  163.8949 N.ar    1  UNL1       -0.1422
      5 N         143.1897  143.0590  164.7274 N.ar    1  UNL1       -0.2242
      6 C         142.9621  142.5608  166.1238 C.ar    1  UNL1        0.1049
      7 C         141.4973  142.6782  166.4249 C.ar    1  UNL1        0.0718
      8 C         140.8196  143.2489  165.2146 C.ar    1  UNL1        0.0040
      9 C         141.8655  143.4843  164.1654 C.ar    1  UNL1        0.1107
     10 C         140.8278  142.2925  167.7106 C.ar    1  UNL1        0.2508
     11 N         140.8990  143.0497  169.0035 N.ar    1  UNL1       -0.1072
     12 N         140.0848  142.3071  170.0210 N.ar    1  UNL1       -0.1114
     13 C         139.5103  141.0909  169.3571 C.ar    1  UNL1        0.2270
     14 C         138.6310  140.0640  170.0070 C.3     1  UNL1        0.0967
     15 O         139.9695  141.0819  167.9292 O.2     1  UNL1       -0.4195
     16 C         139.3534  143.5342  165.0774 C.3     1  UNL1        0.0241
     17 C         138.8168  144.8896  165.4310 C.3     1  UNL1        0.0047
     18 C         138.4238  142.4642  164.5867 C.3     1  UNL1        0.0047
     19 N         140.4591  144.4562  162.2091 N.pl3   1  UNL1       -0.2955
     20 H         139.7745  144.8432  162.8013 H       1  UNL1        0.1537
     21 C         139.9735  145.9906  154.5258 C.3     1  UNL1        0.0521
     22 C         139.9511  145.4434  155.9223 C.ar    1  UNL1        0.0611
     23 C         140.4239  146.1544  157.1555 C.ar    1  UNL1        0.0178
     24 C         140.2170  145.2396  158.3261 C.ar    1  UNL1        0.0364
     25 C         140.4979  145.4040  159.7903 C.ar    1  UNL1        0.0192
     26 C         140.1782  144.2919  160.7448 C.ar    1  UNL1        0.0668
     27 C         139.5775  143.0155  160.2350 C.ar    1  UNL1        0.0883
     28 N         139.2965  142.8511  158.7708 N.ar    1  UNL1       -0.3364
     29 C         139.6163  143.9632  157.8163 C.ar    1  UNL1        0.1402
     30 N         139.4520  144.0891  156.3307 N.ar    1  UNL1       -0.2328
     31 H         138.9023  142.0133  158.4362 H       1  UNL1        0.1674
@<TRIPOS>BOND
     1    21    22    1
     2    22    23   ar
     3    23    24   ar
     4    24    25   ar
     5    25    26   ar
     6    26    19    1
     7    19     1    1
     8     1     2   ar
     9     2     3   ar
    10     3     4   ar
    11     4     5   ar
    12     5     6   ar
    13     6     7   ar
    14     7    10    1
    15    10    11   ar
    16    11    12   ar
    17    12    13   ar
    18    13    14    1
    19    13    15   ar
    20     7     8   ar
    21     8    16    1
    22    16    17    1
    23    16    18    1
    24     8     9   ar
    25    26    27   ar
    26    27    28   ar
    27    28    29   ar
    28    29    30   ar
    29    30    22   ar
    30    29    24    1
    31     9     1   ar
    32     9     5   ar
    33    15    10   ar
    34    19    20    1
    35    28    31    1
