@<TRIPOS>MOLECULE
*****
 37 41 0 0 0
SMALL
GASTEIGER

@<TRIPOS>ATOM
      1 C         140.3925  138.8954  160.5442 C.ar    1  UNL1        0.1664
      2 N         140.3077  140.3662  160.8270 N.ar    1  UNL1       -0.2120
      3 C         139.8184  140.8463  162.1612 C.ar    1  UNL1        0.1318
      4 C         139.4138  139.8557  163.2125 C.ar    1  UNL1        0.0491
      5 C         138.9244  140.3359  164.5467 C.ar    1  UNL1        0.0041
      6 C         138.5198  139.3454  165.5980 C.ar    1  UNL1        0.0002
      7 C         138.6045  137.8748  165.3151 C.ar    1  UNL1        0.0015
      8 C         139.0939  137.3947  163.9809 C.ar    1  UNL1        0.0192
      9 C         139.4985  138.3851  162.9296 C.ar    1  UNL1        0.0856
     10 N         139.9879  137.9050  161.5955 N.ar    1  UNL1       -0.2264
     11 C         142.3524  138.2467  158.9669 C.ar    1  UNL1        0.1277
     12 C         142.8418  137.7666  157.6327 C.ar    1  UNL1        0.0407
     13 C         141.8605  137.4550  156.5417 C.ar    1  UNL1        0.1003
     14 N         140.3900  137.6236  156.7849 N.ar    1  UNL1       -0.2421
     15 C         139.9007  138.1037  158.1191 C.ar    1  UNL1        0.1032
     16 C         140.8818  138.4153  159.2100 C.ar    1  UNL1        0.0735
     17 N         144.3147  138.8699  161.1488 N.3     1  UNL1       -0.2035
     18 S         143.3335  138.5583  160.0578 S.O2    1  UNL1        0.0573
     19 O         143.4881  139.9505  159.5212 O.2     1  UNL1       -0.1532
     20 O         143.1790  137.1661  160.5944 O.2     1  UNL1       -0.1532
     21 H         144.4381  138.0480  161.7402 H       1  UNL1        0.1442
     22 H         143.9626  139.6441  161.7119 H       1  UNL1        0.1442
     23 C         138.8397  141.8066  164.8295 C.ar    1  UNL1        0.0001
     24 C         139.9269  142.4842  165.6097 C.ar    1  UNL1        0.0000
     25 C         139.8422  143.9549  165.8926 C.ar    1  UNL1        0.0000
     26 C         138.6701  144.7479  165.3952 C.ar    1  UNL1        0.0000
     27 C         137.5828  144.0703  164.6150 C.ar    1  UNL1        0.0000
     28 C         137.6676  142.5997  164.3322 C.ar    1  UNL1        0.0000
     29 N         139.7336  142.3169  162.4441 N.pl3   1  UNL1       -0.3131
     30 H         138.9518  142.6829  162.9175 H       1  UNL1        0.1485
     31 C         140.8400  143.2300  162.0056 C.3     1  UNL1        0.1348
     32 C         142.0004  143.4945  162.9187 C.ar    1  UNL1        0.0788
     33 C         142.3766  144.9049  163.2640 C.ar    1  UNL1        0.0165
     34 C         143.5370  145.1695  164.1770 C.ar    1  UNL1        0.0029
     35 C         144.3210  144.0237  164.7447 C.ar    1  UNL1        0.0207
     36 C         143.9447  142.6132  164.3994 C.ar    1  UNL1        0.0985
     37 N         142.7844  142.3487  163.4864 N.ar    1  UNL1       -0.2464
@<TRIPOS>BOND
     1    17    18    1
     2    18    19    2
     3    18    20    2
     4    18    11    1
     5    11    12   ar
     6    12    13   ar
     7    13    14   ar
     8    14    15   ar
     9    15    16   ar
    10    16     1    1
    11     1     2   ar
    12     2     3   ar
    13     3    29    1
    14    29    31    1
    15    31    32    1
    16    32    33   ar
    17    33    34   ar
    18    34    35   ar
    19    35    36   ar
    20    36    37   ar
    21     3     4   ar
    22     4     5   ar
    23     5    23    1
    24    23    24   ar
    25    24    25   ar
    26    25    26   ar
    27    26    27   ar
    28    27    28   ar
    29     5     6   ar
    30     6     7   ar
    31     7     8   ar
    32     8     9   ar
    33     9    10   ar
    34    16    11   ar
    35    10     1   ar
    36    37    32   ar
    37     9     4   ar
    38    28    23   ar
    39    17    21    1
    40    17    22    1
    41    29    30    1
@<TRIPOS>MOLECULE
*****
 37 41 0 0 0
SMALL
GASTEIGER

@<TRIPOS>ATOM
      1 C         140.0646  141.1124  163.2177 C.ar    1  UNL1        0.1664
      2 N         141.0193  141.8722  164.0902 N.ar    1  UNL1       -0.2120
      3 C         140.9716  141.7022  165.5798 C.ar    1  UNL1        0.1318
      4 C         139.9693  140.7722  166.1968 C.ar    1  UNL1        0.0491
      5 C         139.9217  140.6022  167.6864 C.ar    1  UNL1        0.0041
      6 C         138.9194  139.6723  168.3034 C.ar    1  UNL1        0.0002
      7 C         137.9648  138.9125  167.4309 C.ar    1  UNL1        0.0015
      8 C         138.0124  139.0825  165.9413 C.ar    1  UNL1        0.0192
      9 C         139.0147  140.0124  165.3243 C.ar    1  UNL1        0.0856
     10 N         139.0623  140.1825  163.8347 N.ar    1  UNL1       -0.2264
     11 C         139.3047  142.3619  161.0703 C.ar    1  UNL1        0.1277
     12 C         139.3523  142.5320  159.5807 C.ar    1  UNL1        0.0407
     13 C         140.2075  141.6226  158.7490 C.ar    1  UNL1        0.1003
     14 N         141.0149  140.5432  159.4068 N.ar    1  UNL1       -0.2421
     15 C         140.9673  140.3731  160.8964 C.ar    1  UNL1        0.1032
     16 C         140.1122  141.2824  161.7281 C.ar    1  UNL1        0.0735
     17 N         137.5944  144.1807  162.7338 N.3     1  UNL1       -0.2035
     18 S         138.4496  143.2713  161.9020 S.O2    1  UNL1        0.0573
     19 O         137.3503  142.2508  161.8876 O.2     1  UNL1       -0.1532
     20 O         139.5488  144.2918  161.9164 O.2     1  UNL1       -0.1532
     21 H         138.1053  145.0411  162.9316 H       1  UNL1        0.1442
     22 H         137.3575  143.7167  163.6107 H       1  UNL1        0.1442
     23 C         140.8764  141.3620  168.5589 C.ar    1  UNL1        0.0001
     24 C         140.5158  142.7331  169.0488 C.ar    1  UNL1        0.0000
     25 C         141.4705  143.4930  169.9213 C.ar    1  UNL1        0.0000
     26 C         142.7857  142.8817  170.3039 C.ar    1  UNL1        0.0000
     27 C         143.1463  141.5105  169.8140 C.ar    1  UNL1        0.0000
     28 C         142.1916  140.7507  168.9415 C.ar    1  UNL1        0.0000
     29 N         141.9262  142.4620  166.4523 N.pl3   1  UNL1       -0.3131
     30 H         141.5901  142.9619  167.2310 H       1  UNL1        0.1485
     31 C         143.3931  142.4601  166.1385 C.3     1  UNL1        0.1348
     32 C         143.8622  142.7529  164.7442 C.ar    1  UNL1        0.0788
     33 C         143.6526  144.1154  164.1531 C.ar    1  UNL1        0.0165
     34 C         144.1217  144.4083  162.7587 C.ar    1  UNL1        0.0029
     35 C         144.8003  143.3386  161.9555 C.ar    1  UNL1        0.0207
     36 C         145.0098  141.9759  162.5467 C.ar    1  UNL1        0.0985
     37 N         144.5408  141.6831  163.9410 N.ar    1  UNL1       -0.2464
@<TRIPOS>BOND
     1    17    18    1
     2    18    19    2
     3    18    20    2
     4    18    11    1
     5    11    12   ar
     6    12    13   ar
     7    13    14   ar
     8    14    15   ar
     9    15    16   ar
    10    16     1    1
    11     1     2   ar
    12     2     3   ar
    13     3    29    1
    14    29    31    1
    15    31    32    1
    16    32    33   ar
    17    33    34   ar
    18    34    35   ar
    19    35    36   ar
    20    36    37   ar
    21     3     4   ar
    22     4     5   ar
    23     5    23    1
    24    23    24   ar
    25    24    25   ar
    26    25    26   ar
    27    26    27   ar
    28    27    28   ar
    29     5     6   ar
    30     6     7   ar
    31     7     8   ar
    32     8     9   ar
    33     9    10   ar
    34    16    11   ar
    35    10     1   ar
    36    37    32   ar
    37     9     4   ar
    38    28    23   ar
    39    17    21    1
    40    17    22    1
    41    29    30    1
@<TRIPOS>MOLECULE
*****
 37 41 0 0 0
SMALL
GASTEIGER

@<TRIPOS>ATOM
      1 C         143.1508  140.6340  161.0557 C.ar    1  UNL1        0.1664
      2 N         141.7213  140.4860  161.4854 N.ar    1  UNL1       -0.2120
      3 C         141.3993  139.9305  162.8410 C.ar    1  UNL1        0.1318
      4 C         142.5068  139.5231  163.7670 C.ar    1  UNL1        0.0491
      5 C         142.1848  138.9676  165.1227 C.ar    1  UNL1        0.0041
      6 C         143.2923  138.5601  166.0486 C.ar    1  UNL1        0.0002
      7 C         144.7217  138.7082  165.6190 C.ar    1  UNL1        0.0015
      8 C         145.0437  139.2637  164.2633 C.ar    1  UNL1        0.0192
      9 C         143.9363  139.6711  163.3374 C.ar    1  UNL1        0.0856
     10 N         144.2583  140.2266  161.9817 N.ar    1  UNL1       -0.2264
     11 C         143.3799  142.6662  159.4532 C.ar    1  UNL1        0.1277
     12 C         143.7019  143.2217  158.0976 C.ar    1  UNL1        0.0407
     13 C         144.1169  142.3005  156.9888 C.ar    1  UNL1        0.1003
     14 N         144.2098  140.8239  157.2357 N.ar    1  UNL1       -0.2421
     15 C         143.8878  140.2684  158.5914 C.ar    1  UNL1        0.1032
     16 C         143.4728  141.1895  159.7001 C.ar    1  UNL1        0.0735
     17 N         142.5500  144.5084  161.6708 N.3     1  UNL1       -0.2035
     18 S         142.9649  143.5873  160.5620 S.O2    1  UNL1        0.0573
     19 O         144.3624  143.5618  161.1062 O.2     1  UNL1       -0.1532
     20 O         141.5674  143.6127  160.0178 O.2     1  UNL1       -0.1532
     21 H         141.5599  144.7336  161.5732 H       1  UNL1        0.1442
     22 H         143.0999  145.3662  161.6239 H       1  UNL1        0.1442
     23 C         140.7552  138.8195  165.5523 C.ar    1  UNL1        0.0001
     24 C         140.1128  139.8786  166.3982 C.ar    1  UNL1        0.0000
     25 C         138.6832  139.7306  166.8278 C.ar    1  UNL1        0.0000
     26 C         137.8962  138.5234  166.4115 C.ar    1  UNL1        0.0000
     27 C         138.5387  137.4643  165.5656 C.ar    1  UNL1        0.0000
     28 C         139.9682  137.6124  165.1360 C.ar    1  UNL1        0.0000
     29 N         139.9698  139.7825  163.2707 N.pl3   1  UNL1       -0.3131
     30 H         139.6948  139.0032  163.8058 H       1  UNL1        0.1485
     31 C         138.9592  140.8217  162.8850 C.3     1  UNL1        0.1348
     32 C         138.9621  142.1591  163.5641 C.ar    1  UNL1        0.0788
     33 C         137.7437  142.6277  164.3030 C.ar    1  UNL1        0.0165
     34 C         137.7465  143.9651  164.9822 C.ar    1  UNL1        0.0029
     35 C         138.9678  144.8340  164.9225 C.ar    1  UNL1        0.0207
     36 C         140.1862  144.3654  164.1836 C.ar    1  UNL1        0.0985
     37 N         140.1833  143.0280  163.5044 N.ar    1  UNL1       -0.2464
@<TRIPOS>BOND
     1    17    18    1
     2    18    19    2
     3    18    20    2
     4    18    11    1
     5    11    12   ar
     6    12    13   ar
     7    13    14   ar
     8    14    15   ar
     9    15    16   ar
    10    16     1    1
    11     1     2   ar
    12     2     3   ar
    13     3    29    1
    14    29    31    1
    15    31    32    1
    16    32    33   ar
    17    33    34   ar
    18    34    35   ar
    19    35    36   ar
    20    36    37   ar
    21     3     4   ar
    22     4     5   ar
    23     5    23    1
    24    23    24   ar
    25    24    25   ar
    26    25    26   ar
    27    26    27   ar
    28    27    28   ar
    29     5     6   ar
    30     6     7   ar
    31     7     8   ar
    32     8     9   ar
    33     9    10   ar
    34    16    11   ar
    35    10     1   ar
    36    37    32   ar
    37     9     4   ar
    38    28    23   ar
    39    17    21    1
    40    17    22    1
    41    29    30    1
@<TRIPOS>MOLECULE
*****
 37 41 0 0 0
SMALL
GASTEIGER

@<TRIPOS>ATOM
      1 C         139.9632  140.6320  163.3601 C.ar    1  UNL1        0.1664
      2 N         140.9384  141.4396  164.1643 N.ar    1  UNL1       -0.2120
      3 C         140.8943  141.3934  165.6630 C.ar    1  UNL1        0.1318
      4 C         139.8750  140.5396  166.3573 C.ar    1  UNL1        0.0491
      5 C         139.8309  140.4934  167.8560 C.ar    1  UNL1        0.0041
      6 C         138.8117  139.6396  168.5503 C.ar    1  UNL1        0.0002
      7 C         137.8365  138.8321  167.7461 C.ar    1  UNL1        0.0015
      8 C         137.8806  138.8783  166.2474 C.ar    1  UNL1        0.0192
      9 C         138.8999  139.7321  165.5531 C.ar    1  UNL1        0.0856
     10 N         138.9440  139.7783  164.0544 N.ar    1  UNL1       -0.2264
     11 C         140.5689  139.5198  161.0915 C.ar    1  UNL1        0.1277
     12 C         140.6130  139.5660  159.5929 C.ar    1  UNL1        0.0407
     13 C         140.0955  140.7707  158.8641 C.ar    1  UNL1        0.1003
     14 N         139.5340  141.9291  159.6340 N.ar    1  UNL1       -0.2421
     15 C         139.4899  141.8829  161.1327 C.ar    1  UNL1        0.1032
     16 C         140.0073  140.6782  161.8614 C.ar    1  UNL1        0.0735
     17 N         141.6038  137.1105  162.5491 N.3     1  UNL1       -0.2035
     18 S         141.0863  138.3151  161.8203 S.O2    1  UNL1        0.0573
     19 O         142.4141  138.9909  161.9945 O.2     1  UNL1       -0.1532
     20 O         139.7585  137.6394  161.6461 O.2     1  UNL1       -0.1532
     21 H         140.8698  136.4042  162.6026 H       1  UNL1        0.1442
     22 H         141.8868  137.3789  163.4916 H       1  UNL1        0.1442
     23 C         140.8061  141.3010  168.6603 C.ar    1  UNL1        0.0001
     24 C         142.1236  140.7054  169.0597 C.ar    1  UNL1        0.0000
     25 C         143.0988  141.5130  169.8639 C.ar    1  UNL1        0.0000
     26 C         142.7565  142.9162  170.2688 C.ar    1  UNL1        0.0000
     27 C         141.4390  143.5118  169.8693 C.ar    1  UNL1        0.0000
     28 C         140.4638  142.7042  169.0651 C.ar    1  UNL1        0.0000
     29 N         141.8695  142.2010  166.4673 N.pl3   1  UNL1       -0.3131
     30 H         141.5528  142.7409  167.2271 H       1  UNL1        0.1485
     31 C         143.3272  142.1859  166.1138 C.3     1  UNL1        0.1348
     32 C         143.7733  142.6277  164.7515 C.ar    1  UNL1        0.0788
     33 C         143.5810  144.0529  164.3250 C.ar    1  UNL1        0.0165
     34 C         144.0270  144.4948  162.9627 C.ar    1  UNL1        0.0029
     35 C         144.6653  143.5114  162.0270 C.ar    1  UNL1        0.0207
     36 C         144.8576  142.0862  162.4535 C.ar    1  UNL1        0.0985
     37 N         144.4116  141.6444  163.8158 N.ar    1  UNL1       -0.2464
@<TRIPOS>BOND
     1    17    18    1
     2    18    19    2
     3    18    20    2
     4    18    11    1
     5    11    12   ar
     6    12    13   ar
     7    13    14   ar
     8    14    15   ar
     9    15    16   ar
    10    16     1    1
    11     1     2   ar
    12     2     3   ar
    13     3    29    1
    14    29    31    1
    15    31    32    1
    16    32    33   ar
    17    33    34   ar
    18    34    35   ar
    19    35    36   ar
    20    36    37   ar
    21     3     4   ar
    22     4     5   ar
    23     5    23    1
    24    23    24   ar
    25    24    25   ar
    26    25    26   ar
    27    26    27   ar
    28    27    28   ar
    29     5     6   ar
    30     6     7   ar
    31     7     8   ar
    32     8     9   ar
    33     9    10   ar
    34    16    11   ar
    35    10     1   ar
    36    37    32   ar
    37     9     4   ar
    38    28    23   ar
    39    17    21    1
    40    17    22    1
    41    29    30    1
@<TRIPOS>MOLECULE
*****
 37 41 0 0 0
SMALL
GASTEIGER

@<TRIPOS>ATOM
      1 C         139.2130  142.6341  159.9115 C.ar    1  UNL1        0.1664
      2 N         140.6486  142.6053  160.3455 N.ar    1  UNL1       -0.2120
      3 C         141.0202  143.0259  161.7366 C.ar    1  UNL1        0.1318
      4 C         139.9561  143.4753  162.6936 C.ar    1  UNL1        0.0491
      5 C         140.3276  143.8959  164.0847 C.ar    1  UNL1        0.0041
      6 C         139.2636  144.3452  165.0418 C.ar    1  UNL1        0.0002
      7 C         137.8281  144.3739  164.6077 C.ar    1  UNL1        0.0015
      8 C         137.4566  143.9533  163.2167 C.ar    1  UNL1        0.0192
      9 C         138.5206  143.5040  162.2596 C.ar    1  UNL1        0.0856
     10 N         138.1490  143.0834  160.8686 N.ar    1  UNL1       -0.2264
     11 C         138.6420  140.7608  158.2042 C.ar    1  UNL1        0.1277
     12 C         138.2705  140.3402  156.8131 C.ar    1  UNL1        0.0407
     13 C         138.0984  141.3723  155.7383 C.ar    1  UNL1        0.1003
     14 N         138.2979  142.8249  156.0546 N.ar    1  UNL1       -0.2421
     15 C         138.6694  143.2455  157.4456 C.ar    1  UNL1        0.1032
     16 C         138.8415  142.2135  158.5204 C.ar    1  UNL1        0.0735
     17 N         138.9861  138.6967  160.3539 N.3     1  UNL1       -0.2035
     18 S         138.8141  139.7287  159.2790 S.O2    1  UNL1        0.0573
     19 O         137.3667  139.8700  159.6464 O.2     1  UNL1       -0.1532
     20 O         140.2615  139.5875  158.9117 O.2     1  UNL1       -0.1532
     21 H         139.9531  138.3721  160.3620 H       1  UNL1        0.1442
     22 H         138.3646  137.9088  160.1714 H       1  UNL1        0.1442
     23 C         141.7632  143.8671  164.5187 C.ar    1  UNL1        0.0001
     24 C         142.7122  144.9265  164.0422 C.ar    1  UNL1        0.0000
     25 C         144.1478  144.8978  164.4762 C.ar    1  UNL1        0.0000
     26 C         144.6344  143.8096  165.3867 C.ar    1  UNL1        0.0000
     27 C         143.6853  142.7501  165.8632 C.ar    1  UNL1        0.0000
     28 C         142.2498  142.7789  165.4292 C.ar    1  UNL1        0.0000
     29 N         142.4557  142.9972  162.1706 N.pl3   1  UNL1       -0.3131
     30 H         142.8416  143.7679  162.6464 H       1  UNL1        0.1485
     31 C         143.3033  141.7942  161.8796 C.3     1  UNL1        0.1348
     32 C         143.5084  140.7483  162.9351 C.ar    1  UNL1        0.0788
     33 C         144.8872  140.4678  163.4549 C.ar    1  UNL1        0.0165
     34 C         145.0924  139.4218  164.5103 C.ar    1  UNL1        0.0029
     35 C         143.9188  138.6564  165.0459 C.ar    1  UNL1        0.0207
     36 C         142.5400  138.9370  164.5260 C.ar    1  UNL1        0.0985
     37 N         142.3348  139.9829  163.4706 N.ar    1  UNL1       -0.2464
@<TRIPOS>BOND
     1    17    18    1
     2    18    19    2
     3    18    20    2
     4    18    11    1
     5    11    12   ar
     6    12    13   ar
     7    13    14   ar
     8    14    15   ar
     9    15    16   ar
    10    16     1    1
    11     1     2   ar
    12     2     3   ar
    13     3    29    1
    14    29    31    1
    15    31    32    1
    16    32    33   ar
    17    33    34   ar
    18    34    35   ar
    19    35    36   ar
    20    36    37   ar
    21     3     4   ar
    22     4     5   ar
    23     5    23    1
    24    23    24   ar
    25    24    25   ar
    26    25    26   ar
    27    26    27   ar
    28    27    28   ar
    29     5     6   ar
    30     6     7   ar
    31     7     8   ar
    32     8     9   ar
    33     9    10   ar
    34    16    11   ar
    35    10     1   ar
    36    37    32   ar
    37     9     4   ar
    38    28    23   ar
    39    17    21    1
    40    17    22    1
    41    29    30    1
@<TRIPOS>MOLECULE
*****
 37 41 0 0 0
SMALL
GASTEIGER

@<TRIPOS>ATOM
      1 C         140.8265  139.4214  162.9807 C.ar    1  UNL1        0.1664
      2 N         141.7337  140.2858  163.8053 N.ar    1  UNL1       -0.2120
      3 C         141.4386  140.5104  165.2587 C.ar    1  UNL1        0.1318
      4 C         140.2363  139.8706  165.8875 C.ar    1  UNL1        0.0491
      5 C         139.9412  140.0952  167.3410 C.ar    1  UNL1        0.0041
      6 C         138.7390  139.4555  167.9698 C.ar    1  UNL1        0.0002
      7 C         137.8319  138.5912  167.1452 C.ar    1  UNL1        0.0015
      8 C         138.1270  138.3666  165.6917 C.ar    1  UNL1        0.0192
      9 C         139.3292  139.0063  165.0629 C.ar    1  UNL1        0.0856
     10 N         139.6243  138.7817  163.6095 N.ar    1  UNL1       -0.2264
     11 C         140.4651  140.0555  160.4872 C.ar    1  UNL1        0.1277
     12 C         140.7602  139.8309  159.0338 C.ar    1  UNL1        0.0407
     13 C         141.7118  138.7475  158.6204 C.ar    1  UNL1        0.1003
     14 N         142.3682  137.8888  159.6604 N.ar    1  UNL1       -0.2421
     15 C         142.0731  138.1134  161.1138 C.ar    1  UNL1        0.1032
     16 C         141.1216  139.1967  161.5272 C.ar    1  UNL1        0.0735
     17 N         138.5621  142.2223  161.3141 N.3     1  UNL1       -0.2035
     18 S         139.5136  141.1389  160.9006 S.O2    1  UNL1        0.0573
     19 O         140.6631  142.0905  161.0523 O.2     1  UNL1       -0.1532
     20 O         138.3642  140.1872  160.7489 O.2     1  UNL1       -0.1532
     21 H         137.6095  141.8578  161.3105 H       1  UNL1        0.1442
     22 H         138.6301  143.0023  160.6603 H       1  UNL1        0.1442
     23 C         140.8484  140.9596  168.1656 C.ar    1  UNL1        0.0001
     24 C         142.1444  140.4085  168.6819 C.ar    1  UNL1        0.0000
     25 C         143.0516  141.2729  169.5065 C.ar    1  UNL1        0.0000
     26 C         142.6627  142.6884  169.8148 C.ar    1  UNL1        0.0000
     27 C         141.3666  143.2395  169.2985 C.ar    1  UNL1        0.0000
     28 C         140.4595  142.3752  168.4739 C.ar    1  UNL1        0.0000
     29 N         142.3457  141.3747  166.0834 N.pl3   1  UNL1       -0.3131
     30 H         142.7097  141.0362  166.9331 H       1  UNL1        0.1485
     31 C         142.6982  142.7549  165.6132 C.3     1  UNL1        0.1348
     32 C         141.7013  143.5586  164.8322 C.ar    1  UNL1        0.0788
     33 C         140.2851  143.6696  165.3139 C.ar    1  UNL1        0.0165
     34 C         139.2880  144.4734  164.5328 C.ar    1  UNL1        0.0029
     35 C         139.7073  145.1662  163.2702 C.ar    1  UNL1        0.0207
     36 C         141.1236  145.0551  162.7885 C.ar    1  UNL1        0.0985
     37 N         142.1205  144.2514  163.5696 N.ar    1  UNL1       -0.2464
@<TRIPOS>BOND
     1    17    18    1
     2    18    19    2
     3    18    20    2
     4    18    11    1
     5    11    12   ar
     6    12    13   ar
     7    13    14   ar
     8    14    15   ar
     9    15    16   ar
    10    16     1    1
    11     1     2   ar
    12     2     3   ar
    13     3    29    1
    14    29    31    1
    15    31    32    1
    16    32    33   ar
    17    33    34   ar
    18    34    35   ar
    19    35    36   ar
    20    36    37   ar
    21     3     4   ar
    22     4     5   ar
    23     5    23    1
    24    23    24   ar
    25    24    25   ar
    26    25    26   ar
    27    26    27   ar
    28    27    28   ar
    29     5     6   ar
    30     6     7   ar
    31     7     8   ar
    32     8     9   ar
    33     9    10   ar
    34    16    11   ar
    35    10     1   ar
    36    37    32   ar
    37     9     4   ar
    38    28    23   ar
    39    17    21    1
    40    17    22    1
    41    29    30    1
@<TRIPOS>MOLECULE
*****
 37 41 0 0 0
SMALL
GASTEIGER

@<TRIPOS>ATOM
      1 C         140.3959  138.8509  160.2916 C.ar    1  UNL1        0.1664
      2 N         140.3356  140.3264  160.5548 N.ar    1  UNL1       -0.2120
      3 C         139.8861  140.8317  161.8936 C.ar    1  UNL1        0.1318
      4 C         139.4968  139.8615  162.9694 C.ar    1  UNL1        0.0491
      5 C         139.0472  140.3668  164.3082 C.ar    1  UNL1        0.0041
      6 C         138.6579  139.3966  165.3839 C.ar    1  UNL1        0.0002
      7 C         138.7182  137.9211  165.1208 C.ar    1  UNL1        0.0015
      8 C         139.1677  137.4158  163.7819 C.ar    1  UNL1        0.0192
      9 C         139.5570  138.3860  162.7062 C.ar    1  UNL1        0.0856
     10 N         140.0066  137.8807  161.3673 N.ar    1  UNL1       -0.2264
     11 C         142.3071  138.1536  158.6757 C.ar    1  UNL1        0.1277
     12 C         142.7567  137.6483  157.3369 C.ar    1  UNL1        0.0407
     13 C         141.7445  137.3350  156.2750 C.ar    1  UNL1        0.1003
     14 N         140.2829  137.5269  156.5521 N.ar    1  UNL1       -0.2421
     15 C         139.8334  138.0322  157.8909 C.ar    1  UNL1        0.1032
     16 C         140.8454  138.3456  158.9527 C.ar    1  UNL1        0.0735
     17 N         144.3313  138.7804  160.7994 N.3     1  UNL1       -0.2035
     18 S         143.3192  138.4670  159.7375 S.O2    1  UNL1        0.0573
     19 O         143.4747  139.8511  159.1808 O.2     1  UNL1       -0.1532
     20 O         143.1636  137.0829  160.2943 O.2     1  UNL1       -0.1532
     21 H         144.4610  137.9641  161.3970 H       1  UNL1        0.1442
     22 H         144.0020  139.5648  161.3621 H       1  UNL1        0.1442
     23 C         138.9870  141.8423  164.5714 C.ar    1  UNL1        0.0001
     24 C         140.1991  142.5631  165.0825 C.ar    1  UNL1        0.0000
     25 C         140.1388  144.0386  165.3457 C.ar    1  UNL1        0.0000
     26 C         138.8665  144.7934  165.0976 C.ar    1  UNL1        0.0000
     27 C         137.6543  144.0725  164.5865 C.ar    1  UNL1        0.0000
     28 C         137.7146  142.5970  164.3234 C.ar    1  UNL1        0.0000
     29 N         139.8258  142.3072  162.1568 N.pl3   1  UNL1       -0.3131
     30 H         140.1373  142.6666  163.0188 H       1  UNL1        0.1485
     31 C         139.2911  143.2352  161.1066 C.3     1  UNL1        0.1348
     32 C         140.2186  143.8307  160.0893 C.ar    1  UNL1        0.0788
     33 C         141.5981  143.2689  159.9124 C.ar    1  UNL1        0.0165
     34 C         142.5258  143.8644  158.8951 C.ar    1  UNL1        0.0029
     35 C         142.0738  145.0217  158.0546 C.ar    1  UNL1        0.0207
     36 C         140.6942  145.5835  158.2315 C.ar    1  UNL1        0.0985
     37 N         139.7667  144.9880  159.2488 N.ar    1  UNL1       -0.2464
@<TRIPOS>BOND
     1    17    18    1
     2    18    19    2
     3    18    20    2
     4    18    11    1
     5    11    12   ar
     6    12    13   ar
     7    13    14   ar
     8    14    15   ar
     9    15    16   ar
    10    16     1    1
    11     1     2   ar
    12     2     3   ar
    13     3    29    1
    14    29    31    1
    15    31    32    1
    16    32    33   ar
    17    33    34   ar
    18    34    35   ar
    19    35    36   ar
    20    36    37   ar
    21     3     4   ar
    22     4     5   ar
    23     5    23    1
    24    23    24   ar
    25    24    25   ar
    26    25    26   ar
    27    26    27   ar
    28    27    28   ar
    29     5     6   ar
    30     6     7   ar
    31     7     8   ar
    32     8     9   ar
    33     9    10   ar
    34    16    11   ar
    35    10     1   ar
    36    37    32   ar
    37     9     4   ar
    38    28    23   ar
    39    17    21    1
    40    17    22    1
    41    29    30    1
@<TRIPOS>MOLECULE
*****
 37 41 0 0 0
SMALL
GASTEIGER

@<TRIPOS>ATOM
      1 C         143.0262  140.3526  160.2122 C.ar    1  UNL1        0.1664
      2 N         141.7200  140.9101  160.6952 N.ar    1  UNL1       -0.2120
      3 C         141.6714  141.7224  161.9552 C.ar    1  UNL1        0.1318
      4 C         142.9289  141.9774  162.7322 C.ar    1  UNL1        0.0491
      5 C         142.8802  142.7898  163.9923 C.ar    1  UNL1        0.0041
      6 C         144.1377  143.0448  164.7693 C.ar    1  UNL1        0.0002
      7 C         145.4438  142.4873  164.2863 C.ar    1  UNL1        0.0015
      8 C         145.4924  141.6749  163.0262 C.ar    1  UNL1        0.0192
      9 C         144.2350  141.4200  162.2492 C.ar    1  UNL1        0.0856
     10 N         144.2837  140.6076  160.9892 N.ar    1  UNL1       -0.2264
     11 C         143.3556  140.2089  157.6390 C.ar    1  UNL1        0.1277
     12 C         143.4042  139.3965  156.3790 C.ar    1  UNL1        0.0407
     13 C         143.1722  137.9155  156.4321 C.ar    1  UNL1        0.1003
     14 N         142.8916  137.2469  157.7452 N.ar    1  UNL1       -0.2421
     15 C         142.8429  138.0593  159.0052 C.ar    1  UNL1        0.1032
     16 C         143.0749  139.5402  158.9522 C.ar    1  UNL1        0.0735
     17 N         143.8196  143.1709  157.5330 N.3     1  UNL1       -0.2035
     18 S         143.5875  141.6899  157.5860 S.O2    1  UNL1        0.0573
     19 O         145.0625  141.4643  157.7393 O.2     1  UNL1       -0.1532
     20 O         142.1126  141.9154  157.4327 O.2     1  UNL1       -0.1532
     21 H         142.9265  143.6512  157.4226 H       1  UNL1        0.1442
     22 H         144.4246  143.3922  156.7422 H       1  UNL1        0.1442
     23 C         141.5740  143.3472  164.4753 C.ar    1  UNL1        0.0001
     24 C         140.8535  142.6897  165.6147 C.ar    1  UNL1        0.0000
     25 C         139.5473  143.2471  166.0977 C.ar    1  UNL1        0.0000
     26 C         138.9617  144.4621  165.4412 C.ar    1  UNL1        0.0000
     27 C         139.6824  145.1196  164.3017 C.ar    1  UNL1        0.0000
     28 C         140.9885  144.5622  163.8187 C.ar    1  UNL1        0.0000
     29 N         140.3653  142.2799  162.4382 N.pl3   1  UNL1       -0.3131
     30 H         140.3168  143.2069  162.7660 H       1  UNL1        0.1485
     31 C         139.1329  141.4248  162.4218 C.3     1  UNL1        0.1348
     32 C         139.0579  140.2006  163.2853 C.ar    1  UNL1        0.0788
     33 C         138.3990  140.2713  164.6310 C.ar    1  UNL1        0.0165
     34 C         138.3239  139.0471  165.4946 C.ar    1  UNL1        0.0029
     35 C         138.9079  137.7522  165.0125 C.ar    1  UNL1        0.0207
     36 C         139.5668  137.6816  163.6668 C.ar    1  UNL1        0.0985
     37 N         139.6418  138.9058  162.8033 N.ar    1  UNL1       -0.2464
@<TRIPOS>BOND
     1    17    18    1
     2    18    19    2
     3    18    20    2
     4    18    11    1
     5    11    12   ar
     6    12    13   ar
     7    13    14   ar
     8    14    15   ar
     9    15    16   ar
    10    16     1    1
    11     1     2   ar
    12     2     3   ar
    13     3    29    1
    14    29    31    1
    15    31    32    1
    16    32    33   ar
    17    33    34   ar
    18    34    35   ar
    19    35    36   ar
    20    36    37   ar
    21     3     4   ar
    22     4     5   ar
    23     5    23    1
    24    23    24   ar
    25    24    25   ar
    26    25    26   ar
    27    26    27   ar
    28    27    28   ar
    29     5     6   ar
    30     6     7   ar
    31     7     8   ar
    32     8     9   ar
    33     9    10   ar
    34    16    11   ar
    35    10     1   ar
    36    37    32   ar
    37     9     4   ar
    38    28    23   ar
    39    17    21    1
    40    17    22    1
    41    29    30    1
@<TRIPOS>MOLECULE
*****
 37 41 0 0 0
SMALL
GASTEIGER

@<TRIPOS>ATOM
      1 C         141.1574  139.9265  161.6414 C.ar    1  UNL1        0.1664
      2 N         141.7995  140.8608  162.6237 N.ar    1  UNL1       -0.2120
      3 C         141.4570  140.7679  164.0812 C.ar    1  UNL1        0.1318
      4 C         140.4726  139.7407  164.5563 C.ar    1  UNL1        0.0491
      5 C         140.1302  139.6478  166.0137 C.ar    1  UNL1        0.0041
      6 C         139.1457  138.6206  166.4889 C.ar    1  UNL1        0.0002
      7 C         138.5037  137.6864  165.5066 C.ar    1  UNL1        0.0015
      8 C         138.8461  137.7793  164.0492 C.ar    1  UNL1        0.0192
      9 C         139.8305  138.8064  163.5740 C.ar    1  UNL1        0.0856
     10 N         140.1729  138.8993  162.1166 N.ar    1  UNL1       -0.2264
     11 C         142.7510  139.3749  159.6650 C.ar    1  UNL1        0.1277
     12 C         143.0934  139.4678  158.2075 C.ar    1  UNL1        0.0407
     13 C         142.1846  140.2051  157.2691 C.ar    1  UNL1        0.1003
     14 N         140.9335  140.8495  157.7881 N.ar    1  UNL1       -0.2421
     15 C         140.5911  140.7566  159.2456 C.ar    1  UNL1        0.1032
     16 C         141.4998  140.0193  160.1840 C.ar    1  UNL1        0.0735
     17 N         144.5684  137.9003  161.5418 N.3     1  UNL1       -0.2035
     18 S         143.6597  138.6376  160.6033 S.O2    1  UNL1        0.0573
     19 O         144.4110  139.9075  160.8735 O.2     1  UNL1       -0.1532
     20 O         142.9083  137.3678  160.3332 O.2     1  UNL1       -0.1532
     21 H         144.2927  136.9191  161.5813 H       1  UNL1        0.1442
     22 H         144.5004  138.3104  162.4733 H       1  UNL1        0.1442
     23 C         140.7722  140.5821  166.9960 C.ar    1  UNL1        0.0001
     24 C         142.0833  140.2203  167.6285 C.ar    1  UNL1        0.0000
     25 C         142.7254  141.1546  168.6108 C.ar    1  UNL1        0.0000
     26 C         142.0563  142.4508  168.9606 C.ar    1  UNL1        0.0000
     27 C         140.7452  142.8126  168.3280 C.ar    1  UNL1        0.0000
     28 C         140.1032  141.8783  167.3458 C.ar    1  UNL1        0.0000
     29 N         142.0991  141.7022  165.0634 N.pl3   1  UNL1       -0.3131
     30 H         142.3218  141.3871  165.9692 H       1  UNL1        0.1485
     31 C         142.4017  143.1165  164.6657 C.3     1  UNL1        0.1348
     32 C         141.3657  143.9328  163.9514 C.ar    1  UNL1        0.0788
     33 C         139.9926  144.0804  164.5368 C.ar    1  UNL1        0.0165
     34 C         138.9565  144.8967  163.8225 C.ar    1  UNL1        0.0029
     35 C         139.2936  145.5654  162.5228 C.ar    1  UNL1        0.0207
     36 C         140.6668  145.4177  161.9374 C.ar    1  UNL1        0.0985
     37 N         141.7028  144.6015  162.6517 N.ar    1  UNL1       -0.2464
@<TRIPOS>BOND
     1    17    18    1
     2    18    19    2
     3    18    20    2
     4    18    11    1
     5    11    12   ar
     6    12    13   ar
     7    13    14   ar
     8    14    15   ar
     9    15    16   ar
    10    16     1    1
    11     1     2   ar
    12     2     3   ar
    13     3    29    1
    14    29    31    1
    15    31    32    1
    16    32    33   ar
    17    33    34   ar
    18    34    35   ar
    19    35    36   ar
    20    36    37   ar
    21     3     4   ar
    22     4     5   ar
    23     5    23    1
    24    23    24   ar
    25    24    25   ar
    26    25    26   ar
    27    26    27   ar
    28    27    28   ar
    29     5     6   ar
    30     6     7   ar
    31     7     8   ar
    32     8     9   ar
    33     9    10   ar
    34    16    11   ar
    35    10     1   ar
    36    37    32   ar
    37     9     4   ar
    38    28    23   ar
    39    17    21    1
    40    17    22    1
    41    29    30    1
