@<TRIPOS>MOLECULE
*****
 42 44 0 0 0
SMALL
GASTEIGER

@<TRIPOS>ATOM
      1 C         139.4061  139.6401  160.4564 C.ar    1  UNL1        0.0597
      2 C         139.2561  138.7650  161.6653 C.ar    1  UNL1        0.0422
      3 C         138.5932  139.2993  162.9003 C.ar    1  UNL1        0.1485
      4 C         138.0804  140.7087  162.9262 C.ar    1  UNL1        0.0743
      5 C         138.2305  141.5838  161.7173 C.ar    1  UNL1        0.1417
      6 C         138.8933  141.0495  160.4823 C.ar    1  UNL1        0.0416
      7 N         141.5507  138.8727  159.2065 N.am    1  UNL1       -0.2644
      8 C         140.0690  139.1059  159.2214 C.2     1  UNL1        0.2508
      9 O         139.2501  138.8047  158.0012 O.2     1  UNL1       -0.2698
     10 H         142.0881  139.0704  160.0074 H       1  UNL1        0.1566
     11 N         143.0492  136.8183  156.2740 N.ar    1  UNL1       -0.2357
     12 C         143.4181  138.2145  155.8681 C.ar    1  UNL1        0.0988
     13 C         142.9016  139.1540  156.9173 C.ar    1  UNL1        0.0565
     14 C         142.2136  138.3385  157.9715 C.ar    1  UNL1        0.1557
     15 N         142.3047  136.8950  157.5740 N.ar    1  UNL1       -0.1534
     16 C         143.3686  135.5656  155.5135 C.3     1  UNL1        0.2423
     17 P         142.7744  134.2563  155.9412 P.3     1  UNL1        0.3677
     18 O         142.1803  132.9471  156.3690 O.2     1  UNL1       -0.2557
     19 O         141.5875  134.5066  155.0588 O.3     1  UNL1       -0.2928
     20 C         141.5219  134.0254  152.5065 C.3     1  UNL1        0.0352
     21 C         141.7878  134.9654  153.6448 C.3     1  UNL1        0.1515
     22 O         143.9613  134.0061  156.8237 O.3     1  UNL1       -0.2928
     23 C         144.6237  132.6603  156.8261 C.3     1  UNL1        0.1515
     24 C         145.3958  132.2065  158.0293 C.3     1  UNL1        0.0352
     25 O         138.4431  138.4242  164.1093 O.3     1  UNL1       -0.4534
     26 C         138.8808  138.9224  165.4548 C.ar    1  UNL1        0.1454
     27 C         137.9230  138.9048  166.6091 C.ar    1  UNL1        0.0388
     28 C         138.3607  139.4030  167.9545 C.ar    1  UNL1        0.0215
     29 C         139.7562  139.9189  168.1456 C.ar    1  UNL1        0.1059
     30 C         140.7139  139.9366  166.9914 C.ar    1  UNL1        0.0215
     31 C         140.2762  139.4383  165.6459 C.ar    1  UNL1        0.0388
     32 S         140.1939  140.4171  169.4911 S.O2    1  UNL1        0.0105
     33 C         140.6316  140.9154  170.8365 C.3     1  UNL1        0.1816
     34 O         138.9291  139.8872  170.0988 O.2     1  UNL1       -0.1686
     35 O         141.4587  140.9471  168.8833 O.2     1  UNL1       -0.1686
     36 O         137.7177  142.9932  161.7432 O.3     1  UNL1       -0.4765
     37 C         138.3050  143.9875  162.7005 C.3     1  UNL1        0.1950
     38 C         139.2973  145.0016  162.2135 C.3     1  UNL1        0.1807
     39 O         138.8205  146.2529  161.5375 O.3     1  UNL1       -0.3785
     40 H         138.3960  146.0240  160.6959 H       1  UNL1        0.2106
     41 C         137.9002  143.9677  164.1447 C.3     1  UNL1        0.0462
     42 C         138.6127  144.8402  165.1353 C.3     1  UNL1        0.0039
@<TRIPOS>BOND
     1    20    21    1
     2    21    19    1
     3    19    17    1
     4    17    18    2
     5    17    16    1
     6    16    11    1
     7    11    12   ar
     8    12    13   ar
     9    13    14   ar
    10    14     7    1
    11     7     8   am
    12     8     9    2
    13     8     1    1
    14     1     2   ar
    15     2     3   ar
    16     3    25    1
    17    25    26    1
    18    26    27   ar
    19    27    28   ar
    20    28    29   ar
    21    29    32    1
    22    32    33    1
    23    32    34    2
    24    32    35    2
    25    29    30   ar
    26    30    31   ar
    27     3     4   ar
    28     4     5   ar
    29     5    36    1
    30    36    37    1
    31    37    41    1
    32    41    42    1
    33    37    38    1
    34    38    39    1
    35     5     6   ar
    36    14    15   ar
    37    17    22    1
    38    22    23    1
    39    23    24    1
    40    15    11   ar
    41     6     1   ar
    42    31    26   ar
    43     7    10    1
    44    39    40    1
@<TRIPOS>MOLECULE
*****
 42 44 0 0 0
SMALL
GASTEIGER

@<TRIPOS>ATOM
      1 C         139.5283  139.1013  160.3924 C.ar    1  UNL1        0.0597
      2 C         139.4998  138.2787  161.6463 C.ar    1  UNL1        0.0422
      3 C         138.8142  138.8043  162.8726 C.ar    1  UNL1        0.1485
      4 C         138.1572  140.1525  162.8449 C.ar    1  UNL1        0.0743
      5 C         138.1858  140.9751  161.5909 C.ar    1  UNL1        0.1417
      6 C         138.8714  140.4495  160.3647 C.ar    1  UNL1        0.0416
      7 N         141.7095  138.6268  159.0629 N.am    1  UNL1       -0.2644
      8 C         140.2139  138.5757  159.1661 C.2     1  UNL1        0.2508
      9 O         139.4039  137.9991  158.0430 O.2     1  UNL1       -0.2698
     10 H         142.2411  139.0053  159.8000 H       1  UNL1        0.1566
     11 N         143.3235  136.5901  156.1797 N.ar    1  UNL1       -0.2357
     12 C         143.5767  137.9950  155.7192 C.ar    1  UNL1        0.0988
     13 C         143.0029  138.9290  156.7432 C.ar    1  UNL1        0.0565
     14 C         142.3951  138.1012  157.8365 C.ar    1  UNL1        0.1557
     15 N         142.5932  136.6557  157.4883 N.ar    1  UNL1       -0.1534
     16 C         143.7293  135.3392  155.4584 C.3     1  UNL1        0.2423
     17 P         143.0389  134.0420  155.7597 P.3     1  UNL1        0.3677
     18 O         142.3485  132.7449  156.0610 O.2     1  UNL1       -0.2557
     19 O         144.1651  133.6543  156.6714 O.3     1  UNL1       -0.2928
     20 C         145.3088  131.7443  158.0108 C.3     1  UNL1        0.0352
     21 C         144.5699  132.2151  156.7932 C.3     1  UNL1        0.1515
     22 O         141.9126  134.4298  154.8480 O.3     1  UNL1       -0.2928
     23 C         142.1367  134.4985  153.3664 C.3     1  UNL1        0.1515
     24 C         141.0286  134.9464  152.4602 C.3     1  UNL1        0.0352
     25 O         138.7856  137.9817  164.1266 O.3     1  UNL1       -0.4534
     26 C         139.0963  138.6187  165.4487 C.ar    1  UNL1        0.1454
     27 C         138.0357  138.7083  166.5057 C.ar    1  UNL1        0.0388
     28 C         138.3464  139.3452  167.8277 C.ar    1  UNL1        0.0215
     29 C         139.7177  139.8926  168.0927 C.ar    1  UNL1        0.1059
     30 C         140.7781  139.8031  167.0357 C.ar    1  UNL1        0.0215
     31 C         140.4674  139.1661  165.7136 C.ar    1  UNL1        0.0388
     32 S         140.0284  140.5296  169.4147 S.O2    1  UNL1        0.0105
     33 C         140.3390  141.1666  170.7367 C.3     1  UNL1        0.1816
     34 O         141.2558  141.1575  168.8237 O.2     1  UNL1       -0.1686
     35 O         138.8009  139.9018  170.0057 O.2     1  UNL1       -0.1686
     36 O         137.5288  142.3233  161.5632 O.3     1  UNL1       -0.4765
     37 C         138.2260  143.5097  162.1600 C.3     1  UNL1        0.1950
     38 C         139.4386  144.0832  161.4885 C.3     1  UNL1        0.1807
     39 O         139.5074  145.5519  161.1918 O.3     1  UNL1       -0.3785
     40 H         138.8335  145.7805  160.5326 H       1  UNL1        0.2106
     41 C         137.7106  144.1228  163.4283 C.3     1  UNL1        0.0462
     42 C         138.1670  143.5946  164.7560 C.3     1  UNL1        0.0039
@<TRIPOS>BOND
     1    20    21    1
     2    21    19    1
     3    19    17    1
     4    17    18    2
     5    17    16    1
     6    16    11    1
     7    11    12   ar
     8    12    13   ar
     9    13    14   ar
    10    14     7    1
    11     7     8   am
    12     8     9    2
    13     8     1    1
    14     1     2   ar
    15     2     3   ar
    16     3    25    1
    17    25    26    1
    18    26    27   ar
    19    27    28   ar
    20    28    29   ar
    21    29    32    1
    22    32    33    1
    23    32    34    2
    24    32    35    2
    25    29    30   ar
    26    30    31   ar
    27     3     4   ar
    28     4     5   ar
    29     5    36    1
    30    36    37    1
    31    37    41    1
    32    41    42    1
    33    37    38    1
    34    38    39    1
    35     5     6   ar
    36    14    15   ar
    37    17    22    1
    38    22    23    1
    39    23    24    1
    40    15    11   ar
    41     6     1   ar
    42    31    26   ar
    43     7    10    1
    44    39    40    1
@<TRIPOS>MOLECULE
*****
 42 44 0 0 0
SMALL
GASTEIGER

@<TRIPOS>ATOM
      1 C         139.1655  140.0162  160.5694 C.ar    1  UNL1        0.0597
      2 C         139.0807  139.0836  161.7411 C.ar    1  UNL1        0.0422
      3 C         138.4690  139.5507  163.0286 C.ar    1  UNL1        0.1485
      4 C         137.9421  140.9503  163.1443 C.ar    1  UNL1        0.0743
      5 C         138.0269  141.8829  161.9726 C.ar    1  UNL1        0.1417
      6 C         138.6386  141.4158  160.6851 C.ar    1  UNL1        0.0416
      7 N         138.9009  139.2352  158.1056 N.am    1  UNL1       -0.2644
      8 C         139.7772  139.5491  159.2818 C.2     1  UNL1        0.2508
      9 O         141.2652  139.3961  159.1705 O.2     1  UNL1       -0.2698
     10 H         137.9243  139.3357  158.1786 H       1  UNL1        0.1566
     11 N         140.6829  137.4199  155.1739 N.ar    1  UNL1       -0.2357
     12 C         140.2249  138.6792  154.4995 C.ar    1  UNL1        0.0988
     13 C         139.5016  139.5125  155.5158 C.ar    1  UNL1        0.0565
     14 C         139.5126  138.7681  156.8180 C.ar    1  UNL1        0.1557
     15 N         140.2426  137.4749  156.6067 N.ar    1  UNL1       -0.1534
     16 C         141.4469  136.3020  154.5286 C.3     1  UNL1        0.2423
     17 P         142.7904  135.9045  155.0644 P.3     1  UNL1        0.3677
     18 O         144.1339  135.5071  155.6001 O.2     1  UNL1       -0.2557
     19 O         142.1935  134.6505  155.6311 O.3     1  UNL1       -0.2928
     20 C         141.2773  132.2684  155.1455 C.3     1  UNL1        0.0352
     21 C         141.4549  133.7004  154.7358 C.3     1  UNL1        0.1515
     22 O         143.3873  137.1586  154.4976 O.3     1  UNL1       -0.2928
     23 C         144.2789  138.0152  155.3469 C.3     1  UNL1        0.1515
     24 C         143.8543  139.4061  155.7143 C.3     1  UNL1        0.0352
     25 O         138.3842  138.6181  164.2005 O.3     1  UNL1       -0.4534
     26 C         138.8322  139.0755  165.5569 C.ar    1  UNL1        0.1454
     27 C         140.1965  139.6736  165.7340 C.ar    1  UNL1        0.0388
     28 C         140.6445  140.1310  167.0905 C.ar    1  UNL1        0.0215
     29 C         139.7283  139.9904  168.2699 C.ar    1  UNL1        0.1059
     30 C         138.3642  139.3923  168.0928 C.ar    1  UNL1        0.0215
     31 C         137.9161  138.9349  166.7363 C.ar    1  UNL1        0.0388
     32 S         140.1764  140.4478  169.6263 S.O2    1  UNL1        0.0105
     33 C         140.6244  140.9052  170.9828 C.3     1  UNL1        0.1816
     34 O         138.7484  140.4899  170.0838 O.2     1  UNL1       -0.1686
     35 O         141.6043  140.4057  169.1689 O.2     1  UNL1       -0.1686
     36 O         137.5000  143.2825  162.0883 O.3     1  UNL1       -0.4765
     37 C         138.1838  144.2694  162.9873 C.3     1  UNL1        0.1950
     38 C         139.2355  145.1848  162.4339 C.3     1  UNL1        0.1807
     39 O         138.8468  146.3048  161.5150 O.3     1  UNL1       -0.3785
     40 H         138.4990  145.9379  160.6871 H       1  UNL1        0.2106
     41 C         137.8160  144.3410  164.4398 C.3     1  UNL1        0.0462
     42 C         138.8322  144.7856  165.4497 C.3     1  UNL1        0.0039
@<TRIPOS>BOND
     1    20    21    1
     2    21    19    1
     3    19    17    1
     4    17    18    2
     5    17    16    1
     6    16    11    1
     7    11    12   ar
     8    12    13   ar
     9    13    14   ar
    10    14     7    1
    11     7     8   am
    12     8     9    2
    13     8     1    1
    14     1     2   ar
    15     2     3   ar
    16     3    25    1
    17    25    26    1
    18    26    27   ar
    19    27    28   ar
    20    28    29   ar
    21    29    32    1
    22    32    33    1
    23    32    34    2
    24    32    35    2
    25    29    30   ar
    26    30    31   ar
    27     3     4   ar
    28     4     5   ar
    29     5    36    1
    30    36    37    1
    31    37    41    1
    32    41    42    1
    33    37    38    1
    34    38    39    1
    35     5     6   ar
    36    14    15   ar
    37    17    22    1
    38    22    23    1
    39    23    24    1
    40    15    11   ar
    41     6     1   ar
    42    31    26   ar
    43     7    10    1
    44    39    40    1
@<TRIPOS>MOLECULE
*****
 42 44 0 0 0
SMALL
GASTEIGER

@<TRIPOS>ATOM
      1 C         142.6516  140.2245  161.5705 C.ar    1  UNL1        0.0597
      2 C         143.0102  139.8121  162.9674 C.ar    1  UNL1        0.0422
      3 C         142.5438  140.6311  164.1342 C.ar    1  UNL1        0.1485
      4 C         141.7188  141.8626  163.9042 C.ar    1  UNL1        0.0743
      5 C         141.3603  142.2751  162.5073 C.ar    1  UNL1        0.1417
      6 C         141.8267  141.4560  161.3405 C.ar    1  UNL1        0.0416
      7 N         142.2929  139.3445  159.1525 N.am    1  UNL1       -0.2644
      8 C         143.1180  139.4054  160.4036 C.2     1  UNL1        0.2508
      9 O         144.4096  138.6474  160.4878 O.2     1  UNL1       -0.2698
     10 H         141.4451  139.8420  159.0972 H       1  UNL1        0.1566
     11 N         143.3763  136.6384  156.5895 N.ar    1  UNL1       -0.2357
     12 C         143.5776  137.8917  155.7902 C.ar    1  UNL1        0.0988
     13 C         143.1963  139.0580  156.6531 C.ar    1  UNL1        0.0565
     14 C         142.7593  138.5254  157.9855 C.ar    1  UNL1        0.1557
     15 N         142.8705  137.0301  157.9462 N.ar    1  UNL1       -0.1534
     16 C         143.6353  135.2392  156.1152 C.3     1  UNL1        0.2423
     17 P         142.4855  134.3196  155.8281 P.3     1  UNL1        0.3677
     18 O         141.3358  133.4000  155.5412 O.2     1  UNL1       -0.2557
     19 O         142.1821  135.0894  154.5770 O.3     1  UNL1       -0.2928
     20 C         140.3532  136.8936  154.1899 C.3     1  UNL1        0.0352
     21 C         140.7651  135.4523  154.2448 C.3     1  UNL1        0.1515
     22 O         142.7890  133.5498  157.0794 O.3     1  UNL1       -0.2928
     23 C         144.2046  133.4281  157.5603 C.3     1  UNL1        0.1515
     24 C         144.8166  132.0725  157.7548 C.3     1  UNL1        0.0352
     25 O         142.9023  140.2187  165.5312 O.3     1  UNL1       -0.4534
     26 C         142.1741  140.8146  166.6994 C.ar    1  UNL1        0.1454
     27 C         140.8052  140.3196  167.0616 C.ar    1  UNL1        0.0388
     28 C         140.0769  140.9155  168.2297 C.ar    1  UNL1        0.0215
     29 C         140.7176  142.0065  169.0356 C.ar    1  UNL1        0.1059
     30 C         142.0864  142.5014  168.6734 C.ar    1  UNL1        0.0215
     31 C         142.8147  141.9055  167.5053 C.ar    1  UNL1        0.0388
     32 S         139.9894  142.6024  170.2038 S.O2    1  UNL1        0.0105
     33 C         139.2611  143.1983  171.3719 C.3     1  UNL1        0.1816
     34 O         140.8407  143.8336  170.1064 O.2     1  UNL1       -0.1686
     35 O         139.1380  141.3712  170.3011 O.2     1  UNL1       -0.1686
     36 O         140.5354  143.5065  162.2773 O.3     1  UNL1       -0.4765
     37 C         139.4082  143.8391  163.2093 C.3     1  UNL1        0.1950
     38 C         138.0159  143.3757  162.8979 C.3     1  UNL1        0.1807
     39 O         137.5695  143.2477  161.4716 O.3     1  UNL1       -0.3785
     40 H         137.5439  144.1261  161.0608 H       1  UNL1        0.2106
     41 C         139.6731  144.6350  164.4528 C.3     1  UNL1        0.0462
     42 C         138.5659  144.8847  165.4336 C.3     1  UNL1        0.0039
@<TRIPOS>BOND
     1    20    21    1
     2    21    19    1
     3    19    17    1
     4    17    18    2
     5    17    16    1
     6    16    11    1
     7    11    12   ar
     8    12    13   ar
     9    13    14   ar
    10    14     7    1
    11     7     8   am
    12     8     9    2
    13     8     1    1
    14     1     2   ar
    15     2     3   ar
    16     3    25    1
    17    25    26    1
    18    26    27   ar
    19    27    28   ar
    20    28    29   ar
    21    29    32    1
    22    32    33    1
    23    32    34    2
    24    32    35    2
    25    29    30   ar
    26    30    31   ar
    27     3     4   ar
    28     4     5   ar
    29     5    36    1
    30    36    37    1
    31    37    41    1
    32    41    42    1
    33    37    38    1
    34    38    39    1
    35     5     6   ar
    36    14    15   ar
    37    17    22    1
    38    22    23    1
    39    23    24    1
    40    15    11   ar
    41     6     1   ar
    42    31    26   ar
    43     7    10    1
    44    39    40    1
@<TRIPOS>MOLECULE
*****
 42 44 0 0 0
SMALL
GASTEIGER

@<TRIPOS>ATOM
      1 C         140.4729  139.9201  160.6152 C.ar    1  UNL1        0.0597
      2 C         140.5716  139.2359  161.9464 C.ar    1  UNL1        0.0422
      3 C         140.0968  139.9347  163.1858 C.ar    1  UNL1        0.1485
      4 C         139.5234  141.3177  163.0940 C.ar    1  UNL1        0.0743
      5 C         139.4247  142.0020  161.7629 C.ar    1  UNL1        0.1417
      6 C         139.8995  141.3032  160.5234 C.ar    1  UNL1        0.0416
      7 N         142.4054  139.2289  159.0221 N.am    1  UNL1       -0.2644
      8 C         140.9477  139.2213  159.3757 C.2     1  UNL1        0.2508
      9 O         139.9647  138.5150  158.4898 O.2     1  UNL1       -0.2698
     10 H         143.0505  139.6925  159.6036 H       1  UNL1        0.1566
     11 N         143.4544  136.7919  156.1891 N.ar    1  UNL1       -0.2357
     12 C         143.7672  138.1179  155.5613 C.ar    1  UNL1        0.0988
     13 C         143.4122  139.1922  156.5462 C.ar    1  UNL1        0.0565
     14 C         142.8802  138.5301  157.7826 C.ar    1  UNL1        0.1557
     15 N         142.9063  137.0467  157.5619 N.ar    1  UNL1       -0.1534
     16 C         143.6547  135.4473  155.5553 C.3     1  UNL1        0.2423
     17 P         142.9609  134.2421  156.1178 P.3     1  UNL1        0.3677
     18 O         142.2671  133.0370  156.6801 O.2     1  UNL1       -0.2557
     19 O         144.1928  133.8988  156.9018 O.3     1  UNL1       -0.2928
     20 C         145.5689  132.0751  158.1388 C.3     1  UNL1        0.0352
     21 C         144.6100  132.4660  157.0536 C.3     1  UNL1        0.1515
     22 O         141.7291  134.5855  155.3337 O.3     1  UNL1       -0.2928
     23 C         141.7709  134.5880  153.8343 C.3     1  UNL1        0.1515
     24 C         141.8446  133.2913  153.0838 C.3     1  UNL1        0.0352
     25 O         140.1955  139.2505  164.5171 O.3     1  UNL1       -0.4534
     26 C         140.7364  139.9924  165.7033 C.ar    1  UNL1        0.1454
     27 C         142.1560  139.7785  166.1382 C.ar    1  UNL1        0.0388
     28 C         142.6968  140.5204  167.3244 C.ar    1  UNL1        0.0215
     29 C         141.8181  141.4761  168.0758 C.ar    1  UNL1        0.1059
     30 C         140.3985  141.6898  167.6409 C.ar    1  UNL1        0.0215
     31 C         139.8577  140.9480  166.4547 C.ar    1  UNL1        0.0388
     32 S         142.3589  142.2179  169.2620 S.O2    1  UNL1        0.0105
     33 C         142.8997  142.9597  170.4483 C.3     1  UNL1        0.1816
     34 O         143.5383  142.6603  168.4476 O.2     1  UNL1       -0.1686
     35 O         141.1795  141.7755  170.0764 O.2     1  UNL1       -0.1686
     36 O         138.8512  143.3850  161.6711 O.3     1  UNL1       -0.4765
     37 C         139.1388  144.3891  162.7477 C.3     1  UNL1        0.1950
     38 C         140.3570  145.2595  162.6555 C.3     1  UNL1        0.1807
     39 O         140.2146  146.7170  162.3312 O.3     1  UNL1       -0.3785
     40 H         139.8759  146.8156  161.4276 H       1  UNL1        0.2106
     41 C         138.2082  144.5228  163.9165 C.3     1  UNL1        0.0462
     42 C         138.7563  144.8133  165.2822 C.3     1  UNL1        0.0039
@<TRIPOS>BOND
     1    20    21    1
     2    21    19    1
     3    19    17    1
     4    17    18    2
     5    17    16    1
     6    16    11    1
     7    11    12   ar
     8    12    13   ar
     9    13    14   ar
    10    14     7    1
    11     7     8   am
    12     8     9    2
    13     8     1    1
    14     1     2   ar
    15     2     3   ar
    16     3    25    1
    17    25    26    1
    18    26    27   ar
    19    27    28   ar
    20    28    29   ar
    21    29    32    1
    22    32    33    1
    23    32    34    2
    24    32    35    2
    25    29    30   ar
    26    30    31   ar
    27     3     4   ar
    28     4     5   ar
    29     5    36    1
    30    36    37    1
    31    37    41    1
    32    41    42    1
    33    37    38    1
    34    38    39    1
    35     5     6   ar
    36    14    15   ar
    37    17    22    1
    38    22    23    1
    39    23    24    1
    40    15    11   ar
    41     6     1   ar
    42    31    26   ar
    43     7    10    1
    44    39    40    1
@<TRIPOS>MOLECULE
*****
 42 44 0 0 0
SMALL
GASTEIGER

@<TRIPOS>ATOM
      1 C         139.2613  140.5745  160.5753 C.ar    1  UNL1        0.0597
      2 C         139.1089  139.5672  161.6762 C.ar    1  UNL1        0.0422
      3 C         138.5008  139.9737  162.9858 C.ar    1  UNL1        0.1485
      4 C         138.0453  141.3876  163.1944 C.ar    1  UNL1        0.0743
      5 C         138.1977  142.3949  162.0935 C.ar    1  UNL1        0.1417
      6 C         138.8057  141.9883  160.7839 C.ar    1  UNL1        0.0416
      7 N         139.1685  139.1716  158.3905 N.am    1  UNL1       -0.2644
      8 C         139.8694  140.1680  159.2657 C.2     1  UNL1        0.2508
      9 O         141.1783  140.7579  158.8313 O.2     1  UNL1       -0.2698
     10 H         138.3094  138.7845  158.6756 H       1  UNL1        0.1566
     11 N         141.3488  137.9573  155.4177 N.ar    1  UNL1       -0.2357
     12 C         140.0756  138.3219  154.7134 C.ar    1  UNL1        0.0988
     13 C         139.1038  138.8212  155.7413 C.ar    1  UNL1        0.0565
     14 C         139.7766  138.7651  157.0808 C.ar    1  UNL1        0.1557
     15 N         141.1640  138.2313  156.8808 N.ar    1  UNL1       -0.1534
     16 C         142.5890  137.4142  154.7722 C.3     1  UNL1        0.2423
     17 P         143.9360  137.9319  155.1817 P.3     1  UNL1        0.3677
     18 O         145.2830  138.4495  155.5912 O.2     1  UNL1       -0.2557
     19 O         143.6963  139.1827  154.3892 O.3     1  UNL1       -0.2928
     20 C         142.6146  140.1808  152.2483 C.3     1  UNL1        0.0352
     21 C         143.4016  139.0955  152.9211 C.3     1  UNL1        0.1515
     22 O         144.1757  136.6810  155.9742 O.3     1  UNL1       -0.2928
     23 C         143.7809  135.3485  155.4098 C.3     1  UNL1        0.1515
     24 C         143.7579  134.1368  156.2937 C.3     1  UNL1        0.0352
     25 O         138.3484  138.9664  164.0868 O.3     1  UNL1       -0.4534
     26 C         138.8236  139.2915  165.4718 C.ar    1  UNL1        0.1454
     27 C         140.1870  139.8824  165.6776 C.ar    1  UNL1        0.0388
     28 C         140.6623  140.2075  167.0626 C.ar    1  UNL1        0.0215
     29 C         139.7742  139.9418  168.2420 C.ar    1  UNL1        0.1059
     30 C         138.4109  139.3510  168.0362 C.ar    1  UNL1        0.0215
     31 C         137.9356  139.0259  166.6512 C.ar    1  UNL1        0.0388
     32 S         140.2494  140.2669  169.6270 S.O2    1  UNL1        0.0105
     33 C         140.7247  140.5920  171.0121 C.3     1  UNL1        0.1816
     34 O         138.9482  140.9567  169.9117 O.2     1  UNL1       -0.1686
     35 O         141.5507  139.5772  169.3424 O.2     1  UNL1       -0.1686
     36 O         137.7421  143.8087  162.3021 O.3     1  UNL1       -0.4765
     37 C         138.6728  144.8143  162.9125 C.3     1  UNL1        0.1950
     38 C         139.4412  145.7557  162.0330 C.3     1  UNL1        0.1807
     39 O         140.5430  146.5925  162.6123 O.3     1  UNL1       -0.3785
     40 H         140.1692  147.2280  163.2427 H       1  UNL1        0.2106
     41 C         138.8352  144.8785  164.4023 C.3     1  UNL1        0.0462
     42 C         139.8414  144.0005  165.0856 C.3     1  UNL1        0.0039
@<TRIPOS>BOND
     1    20    21    1
     2    21    19    1
     3    19    17    1
     4    17    18    2
     5    17    16    1
     6    16    11    1
     7    11    12   ar
     8    12    13   ar
     9    13    14   ar
    10    14     7    1
    11     7     8   am
    12     8     9    2
    13     8     1    1
    14     1     2   ar
    15     2     3   ar
    16     3    25    1
    17    25    26    1
    18    26    27   ar
    19    27    28   ar
    20    28    29   ar
    21    29    32    1
    22    32    33    1
    23    32    34    2
    24    32    35    2
    25    29    30   ar
    26    30    31   ar
    27     3     4   ar
    28     4     5   ar
    29     5    36    1
    30    36    37    1
    31    37    41    1
    32    41    42    1
    33    37    38    1
    34    38    39    1
    35     5     6   ar
    36    14    15   ar
    37    17    22    1
    38    22    23    1
    39    23    24    1
    40    15    11   ar
    41     6     1   ar
    42    31    26   ar
    43     7    10    1
    44    39    40    1
@<TRIPOS>MOLECULE
*****
 42 44 0 0 0
SMALL
GASTEIGER

@<TRIPOS>ATOM
      1 C         141.8830  139.8766  160.9762 C.ar    1  UNL1        0.0597
      2 C         141.3332  139.0664  162.1124 C.ar    1  UNL1        0.0422
      3 C         140.6070  139.7456  163.2354 C.ar    1  UNL1        0.1485
      4 C         140.4307  141.2352  163.2222 C.ar    1  UNL1        0.0743
      5 C         140.9805  142.0454  162.0860 C.ar    1  UNL1        0.1417
      6 C         141.7067  141.3662  160.9630 C.ar    1  UNL1        0.0416
      7 N         141.8376  138.5962  158.7160 N.am    1  UNL1       -0.2644
      8 C         142.6093  139.1974  159.8531 C.2     1  UNL1        0.2508
      9 O         144.1072  139.1193  159.8672 O.2     1  UNL1       -0.2698
     10 H         140.8545  138.6474  158.7068 H       1  UNL1        0.1566
     11 N         143.5104  136.2032  156.1585 N.ar    1  UNL1       -0.2357
     12 C         143.8523  137.5403  155.5708 C.ar    1  UNL1        0.0988
     13 C         143.2672  138.5995  156.4574 C.ar    1  UNL1        0.0565
     14 C         142.5638  137.9169  157.5929 C.ar    1  UNL1        0.1557
     15 N         142.7141  136.4360  157.4082 N.ar    1  UNL1       -0.1534
     16 C         143.8970  134.8678  155.5954 C.3     1  UNL1        0.2423
     17 P         142.8410  133.8443  155.2997 P.3     1  UNL1        0.3677
     18 O         141.7851  132.8208  155.0040 O.2     1  UNL1       -0.2557
     19 O         142.5734  134.5019  153.9783 O.3     1  UNL1       -0.2928
     20 C         140.5735  136.1455  154.1993 C.3     1  UNL1        0.0352
     21 C         141.1761  134.9046  153.6103 C.3     1  UNL1        0.1515
     22 O         143.1086  133.1866  156.6210 O.3     1  UNL1       -0.2928
     23 C         144.4475  132.5674  156.8931 C.3     1  UNL1        0.1515
     24 C         144.8911  131.3663  156.1118 C.3     1  UNL1        0.0352
     25 O         140.0571  138.9354  164.3718 O.3     1  UNL1       -0.4534
     26 C         140.3229  139.3525  165.7879 C.ar    1  UNL1        0.1454
     27 C         139.1774  139.6043  166.7231 C.ar    1  UNL1        0.0388
     28 C         139.4431  140.0215  168.1392 C.ar    1  UNL1        0.0215
     29 C         140.8544  140.1869  168.6201 C.ar    1  UNL1        0.1059
     30 C         141.9997  139.9351  167.6849 C.ar    1  UNL1        0.0215
     31 C         141.7340  139.5180  166.2688 C.ar    1  UNL1        0.0388
     32 S         141.1201  140.6040  170.0362 S.O2    1  UNL1        0.0105
     33 C         141.3859  141.0212  171.4523 C.3     1  UNL1        0.1816
     34 O         140.2037  139.5226  170.5267 O.2     1  UNL1       -0.1686
     35 O         142.0365  141.6855  169.5456 O.2     1  UNL1       -0.1686
     36 O         140.8042  143.5350  162.0727 O.3     1  UNL1       -0.4765
     37 C         140.9431  144.3180  163.3446 C.3     1  UNL1        0.1950
     38 C         142.3046  144.6997  163.8454 C.3     1  UNL1        0.1807
     39 O         143.4885  144.6294  162.9271 O.3     1  UNL1       -0.3785
     40 H         143.6571  143.7048  162.6872 H       1  UNL1        0.2106
     41 C         139.7206  144.7193  164.1156 C.3     1  UNL1        0.0462
     42 C         139.3864  144.0284  165.4044 C.3     1  UNL1        0.0039
@<TRIPOS>BOND
     1    20    21    1
     2    21    19    1
     3    19    17    1
     4    17    18    2
     5    17    16    1
     6    16    11    1
     7    11    12   ar
     8    12    13   ar
     9    13    14   ar
    10    14     7    1
    11     7     8   am
    12     8     9    2
    13     8     1    1
    14     1     2   ar
    15     2     3   ar
    16     3    25    1
    17    25    26    1
    18    26    27   ar
    19    27    28   ar
    20    28    29   ar
    21    29    32    1
    22    32    33    1
    23    32    34    2
    24    32    35    2
    25    29    30   ar
    26    30    31   ar
    27     3     4   ar
    28     4     5   ar
    29     5    36    1
    30    36    37    1
    31    37    41    1
    32    41    42    1
    33    37    38    1
    34    38    39    1
    35     5     6   ar
    36    14    15   ar
    37    17    22    1
    38    22    23    1
    39    23    24    1
    40    15    11   ar
    41     6     1   ar
    42    31    26   ar
    43     7    10    1
    44    39    40    1
@<TRIPOS>MOLECULE
*****
 42 44 0 0 0
SMALL
GASTEIGER

@<TRIPOS>ATOM
      1 C         142.7581  140.5898  160.8203 C.ar    1  UNL1        0.0597
      2 C         143.3920  140.3215  162.1530 C.ar    1  UNL1        0.0422
      3 C         143.7982  141.4654  163.0341 C.ar    1  UNL1        0.1485
      4 C         143.5706  142.8776  162.5825 C.ar    1  UNL1        0.0743
      5 C         142.9367  143.1458  161.2498 C.ar    1  UNL1        0.1417
      6 C         142.5304  142.0019  160.3687 C.ar    1  UNL1        0.0416
      7 N         142.6961  139.4645  158.4794 N.am    1  UNL1       -0.2644
      8 C         142.3518  139.4458  159.9391 C.2     1  UNL1        0.2508
      9 O         141.6011  138.2832  160.5179 O.2     1  UNL1       -0.2698
     10 H         143.1888  140.2275  158.0995 H       1  UNL1        0.1566
     11 N         142.3674  136.2990  156.2573 N.ar    1  UNL1       -0.2357
     12 C         140.9616  136.8215  156.2272 C.ar    1  UNL1        0.0988
     13 C         140.9137  138.0709  157.0560 C.ar    1  UNL1        0.0565
     14 C         142.2898  138.3205  157.5982 C.ar    1  UNL1        0.1557
     15 N         143.1882  137.2255  157.1046 N.ar    1  UNL1       -0.1534
     16 C         142.8650  135.0665  155.5622 C.3     1  UNL1        0.2423
     17 P         142.6702  133.7194  156.1927 P.3     1  UNL1        0.3677
     18 O         142.4753  132.3724  156.8231 O.2     1  UNL1       -0.2557
     19 O         143.9250  133.9118  156.9916 O.3     1  UNL1       -0.2928
     20 C         145.7117  132.3604  158.0644 C.3     1  UNL1        0.0352
     21 C         144.3138  132.9034  158.0318 C.3     1  UNL1        0.1515
     22 O         141.4153  133.5271  155.3937 O.3     1  UNL1       -0.2928
     23 C         141.3487  132.4530  154.3488 C.3     1  UNL1        0.1515
     24 C         142.4920  132.2605  153.3971 C.3     1  UNL1        0.0352
     25 O         144.4322  141.1972  164.3669 O.3     1  UNL1       -0.4534
     26 C         143.5722  140.9909  165.5785 C.ar    1  UNL1        0.1454
     27 C         143.0434  142.1745  166.3332 C.ar    1  UNL1        0.0388
     28 C         142.1835  141.9681  167.5448 C.ar    1  UNL1        0.0215
     29 C         141.8524  140.5782  168.0017 C.ar    1  UNL1        0.1059
     30 C         142.3812  139.3947  167.2469 C.ar    1  UNL1        0.0215
     31 C         143.2411  139.6011  166.0353 C.ar    1  UNL1        0.0388
     32 S         140.9925  140.3719  169.2133 S.O2    1  UNL1        0.0105
     33 C         140.1325  140.1655  170.4248 C.3     1  UNL1        0.1816
     34 O         140.0673  141.4539  168.7409 O.2     1  UNL1       -0.1686
     35 O         141.9177  139.2898  169.6857 O.2     1  UNL1       -0.1686
     36 O         142.7091  144.5580  160.7981 O.3     1  UNL1       -0.4765
     37 C         141.4666  144.9104  160.0352 C.3     1  UNL1        0.1950
     38 C         141.5378  145.1527  158.5566 C.3     1  UNL1        0.1807
     39 O         142.5632  146.0951  157.9995 O.3     1  UNL1       -0.3785
     40 H         142.3725  146.9965  158.3027 H       1  UNL1        0.2106
     41 C         140.1529  145.0205  160.7508 C.3     1  UNL1        0.0462
     42 C         139.9852  146.0140  161.8621 C.3     1  UNL1        0.0039
@<TRIPOS>BOND
     1    20    21    1
     2    21    19    1
     3    19    17    1
     4    17    18    2
     5    17    16    1
     6    16    11    1
     7    11    12   ar
     8    12    13   ar
     9    13    14   ar
    10    14     7    1
    11     7     8   am
    12     8     9    2
    13     8     1    1
    14     1     2   ar
    15     2     3   ar
    16     3    25    1
    17    25    26    1
    18    26    27   ar
    19    27    28   ar
    20    28    29   ar
    21    29    32    1
    22    32    33    1
    23    32    34    2
    24    32    35    2
    25    29    30   ar
    26    30    31   ar
    27     3     4   ar
    28     4     5   ar
    29     5    36    1
    30    36    37    1
    31    37    41    1
    32    41    42    1
    33    37    38    1
    34    38    39    1
    35     5     6   ar
    36    14    15   ar
    37    17    22    1
    38    22    23    1
    39    23    24    1
    40    15    11   ar
    41     6     1   ar
    42    31    26   ar
    43     7    10    1
    44    39    40    1
@<TRIPOS>MOLECULE
*****
 42 44 0 0 0
SMALL
GASTEIGER

@<TRIPOS>ATOM
      1 C         140.1247  138.7430  158.2129 C.ar    1  UNL1        0.0597
      2 C         141.0928  137.9060  157.4306 C.ar    1  UNL1        0.0422
      3 C         141.1055  137.9771  155.9323 C.ar    1  UNL1        0.1485
      4 C         140.1500  138.8852  155.2165 C.ar    1  UNL1        0.0743
      5 C         139.1819  139.7222  155.9989 C.ar    1  UNL1        0.1417
      6 C         139.1693  139.6511  157.4971 C.ar    1  UNL1        0.0416
      7 N         138.8293  138.8775  160.4610 N.am    1  UNL1       -0.2644
      8 C         140.1121  138.6719  159.7113 C.2     1  UNL1        0.2508
      9 O         141.3822  138.3953  160.4597 O.2     1  UNL1       -0.2698
     10 H         137.9957  139.0591  159.9698 H       1  UNL1        0.1566
     11 N         138.6735  139.4360  164.2989 N.ar    1  UNL1       -0.2357
     12 C         138.9209  137.9580  164.2309 C.ar    1  UNL1        0.0988
     13 C         139.0094  137.5689  162.7849 C.ar    1  UNL1        0.0565
     14 C         138.8167  138.8064  161.9593 C.ar    1  UNL1        0.1557
     15 N         138.6091  139.9603  162.8950 N.ar    1  UNL1       -0.1534
     16 C         138.5178  140.2471  165.5510 C.3     1  UNL1        0.2423
     17 P         139.6489  141.1060  166.0337 P.3     1  UNL1        0.3677
     18 O         140.7799  141.9649  166.5165 O.2     1  UNL1       -0.2557
     19 O         139.1285  142.2509  165.2162 O.3     1  UNL1       -0.2928
     20 C         139.0848  144.7923  164.6784 C.3     1  UNL1        0.0352
     21 C         139.5448  143.6548  165.5412 C.3     1  UNL1        0.1515
     22 O         140.1693  139.9610  166.8513 O.3     1  UNL1       -0.2928
     23 C         140.4562  140.1514  168.3112 C.3     1  UNL1        0.1515
     24 C         139.3247  140.2759  169.2880 C.3     1  UNL1        0.0352
     25 O         142.0736  137.1400  155.1499 O.3     1  UNL1       -0.4534
     26 C         142.3485  135.7253  155.5657 C.ar    1  UNL1        0.1454
     27 C         143.5844  135.4013  156.3517 C.ar    1  UNL1        0.0388
     28 C         143.8593  133.9865  156.7675 C.ar    1  UNL1        0.0215
     29 C         142.8984  132.8958  156.3974 C.ar    1  UNL1        0.1059
     30 C         141.6625  133.2198  155.6114 C.ar    1  UNL1        0.0215
     31 C         141.3876  134.6346  155.1956 C.ar    1  UNL1        0.0388
     32 S         143.1733  131.4810  156.8132 S.O2    1  UNL1        0.0105
     33 C         143.4482  130.0663  157.2290 C.3     1  UNL1        0.1816
     34 O         144.3006  131.9554  157.6817 O.2     1  UNL1       -0.1686
     35 O         142.0460  131.0067  155.9447 O.2     1  UNL1       -0.1686
     36 O         138.2265  140.6303  155.2830 O.3     1  UNL1       -0.4765
     37 C         136.7668  140.2895  155.2273 C.3     1  UNL1        0.1950
     38 C         135.8233  140.8633  156.2425 C.3     1  UNL1        0.1807
     39 O         134.7397  140.0070  156.8277 O.3     1  UNL1       -0.3785
     40 H         134.1057  139.7685  156.1335 H       1  UNL1        0.2106
     41 C         136.2505  139.3748  154.1564 C.3     1  UNL1        0.0462
     42 C         136.5449  137.9053  154.2191 C.3     1  UNL1        0.0039
@<TRIPOS>BOND
     1    20    21    1
     2    21    19    1
     3    19    17    1
     4    17    18    2
     5    17    16    1
     6    16    11    1
     7    11    12   ar
     8    12    13   ar
     9    13    14   ar
    10    14     7    1
    11     7     8   am
    12     8     9    2
    13     8     1    1
    14     1     2   ar
    15     2     3   ar
    16     3    25    1
    17    25    26    1
    18    26    27   ar
    19    27    28   ar
    20    28    29   ar
    21    29    32    1
    22    32    33    1
    23    32    34    2
    24    32    35    2
    25    29    30   ar
    26    30    31   ar
    27     3     4   ar
    28     4     5   ar
    29     5    36    1
    30    36    37    1
    31    37    41    1
    32    41    42    1
    33    37    38    1
    34    38    39    1
    35     5     6   ar
    36    14    15   ar
    37    17    22    1
    38    22    23    1
    39    23    24    1
    40    15    11   ar
    41     6     1   ar
    42    31    26   ar
    43     7    10    1
    44    39    40    1
