@<TRIPOS>MOLECULE
*****
 38 42 0 0 0
SMALL
GASTEIGER

@<TRIPOS>ATOM
      1 C         141.6749  143.4124  162.0535 C.ar    1  UNL1        0.0434
      2 C         141.0551  144.6925  161.5765 C.ar    1  UNL1        0.0083
      3 C         141.1663  145.0876  160.1337 C.ar    1  UNL1        0.0021
      4 C         141.8974  144.2028  159.1680 C.ar    1  UNL1        0.0176
      5 C         142.5171  142.9228  159.6449 C.ar    1  UNL1        0.0660
      6 C         142.4059  142.5276  161.0877 C.ar    1  UNL1        0.0258
      7 N         143.2482  142.0380  158.6792 N.ar    1  UNL1       -0.2900
      8 C         144.5504  142.4889  158.0869 C.ar    1  UNL1        0.0891
      9 C         145.2814  141.6040  157.1211 C.ar    1  UNL1        0.1098
     10 C         144.7102  140.2683  156.7476 C.ar    1  UNL1        0.2043
     11 O         145.4412  139.3835  155.7819 O.2     1  UNL1       -0.2863
     12 C         143.4079  139.8174  157.3399 C.ar    1  UNL1        0.0736
     13 C         142.8367  138.4817  156.9664 C.ar    1  UNL1        0.0078
     14 C         141.5344  138.0308  157.5587 C.ar    1  UNL1        0.0209
     15 C         140.8034  138.9156  158.5245 C.ar    1  UNL1        0.1005
     16 N         141.3746  140.2513  158.8980 N.ar    1  UNL1       -0.2263
     17 C         142.6769  140.7022  158.3057 C.ar    1  UNL1        0.1507
     18 C         146.5837  142.0550  156.5288 C.2     1  UNL1        0.2504
     19 O         147.5381  142.8710  157.3493 O.2     1  UNL1       -0.2700
     20 N         146.9315  141.6899  155.1161 N.am    1  UNL1       -0.3024
     21 H         146.3051  141.1543  154.5776 H       1  UNL1        0.1497
     22 C         148.2337  142.1409  154.5239 C.3     1  UNL1        0.0720
     23 C         149.7305  142.0623  154.4651 C.3     1  UNL1        0.0213
     24 C         148.9925  143.0006  153.5569 C.3     1  UNL1        0.0213
     25 C         141.4525  142.6222  164.9389 C.1     1  UNL1       -0.0535
     26 C         141.5637  143.0173  163.4962 C.1     1  UNL1       -0.0595
     27 C         141.1190  141.4367  169.2672 C.ar    1  UNL1        0.2374
     28 C         140.2835  142.5612  168.7310 C.ar    1  UNL1        0.0690
     29 C         140.3947  142.9564  167.2882 C.ar    1  UNL1        0.0203
     30 C         141.3413  142.2270  166.3817 C.ar    1  UNL1        0.1130
     31 C         142.1768  141.1025  166.9178 C.ar    1  UNL1        0.3095
     32 N         142.0656  140.7073  168.3605 N.ar    1  UNL1       -0.1582
     33 O         142.9011  139.5828  168.8966 O.co2   1  UNL1       -0.6190
     34 C         142.1030  142.0054  171.0583 C.3     1  UNL1        0.0403
     35 C         141.0078  141.0415  170.7099 C.3     1  UNL1        0.1664
     36 C         139.9126  140.0776  170.3615 C.3     1  UNL1        0.0403
     37 O         140.8967  140.6463  172.1526 O.3     1  UNL1       -0.3767
     38 H         141.5404  141.1488  172.6760 H       1  UNL1        0.2109
@<TRIPOS>UNITY_ATOM_ATTR
32 1
charge 1
33 1
charge -1
@<TRIPOS>BOND
     1    34    35    1
     2    35    36    1
     3    35    37    1
     4    35    27    1
     5    27    28   ar
     6    28    29   ar
     7    29    30   ar
     8    30    25    1
     9    25    26    3
    10    26     1    1
    11     1     2   ar
    12     2     3   ar
    13     3     4   ar
    14     4     5   ar
    15     5     7    1
    16     7     8   ar
    17     8     9   ar
    18     9    18    1
    19    18    19    2
    20    18    20   am
    21    20    22    1
    22    22    23    1
    23    23    24    1
    24     9    10   ar
    25    10    11    2
    26    10    12   ar
    27    12    13   ar
    28    13    14   ar
    29    14    15   ar
    30    15    16   ar
    31    16    17   ar
    32     5     6   ar
    33    30    31   ar
    34    31    32   ar
    35    32    33    1
    36    32    27   ar
    37     6     1   ar
    38    17     7   ar
    39    24    22    1
    40    17    12   ar
    41    37    38    1
    42    20    21    1
@<TRIPOS>MOLECULE
*****
 38 42 0 0 0
SMALL
GASTEIGER

@<TRIPOS>ATOM
      1 C         140.0076  141.4813  161.8173 C.ar    1  UNL1        0.0434
      2 C         138.7520  142.0976  161.2753 C.ar    1  UNL1        0.0083
      3 C         138.4472  142.0126  159.8091 C.ar    1  UNL1        0.0021
      4 C         139.3979  141.3113  158.8848 C.ar    1  UNL1        0.0176
      5 C         140.6535  140.6951  159.4267 C.ar    1  UNL1        0.0660
      6 C         140.9584  140.7801  160.8930 C.ar    1  UNL1        0.0258
      7 N         141.6042  139.9938  158.5024 N.ar    1  UNL1       -0.2900
      8 C         141.2906  138.6117  158.0113 C.ar    1  UNL1        0.0891
      9 C         142.2413  137.9104  157.0870 C.ar    1  UNL1        0.1098
     10 C         143.5057  138.5913  156.6539 C.ar    1  UNL1        0.2043
     11 O         144.4565  137.8900  155.7296 O.2     1  UNL1       -0.2863
     12 C         143.8194  139.9735  157.1450 C.ar    1  UNL1        0.0736
     13 C         145.0838  140.6544  156.7119 C.ar    1  UNL1        0.0078
     14 C         145.3975  142.0365  157.2031 C.ar    1  UNL1        0.0209
     15 C         144.4468  142.7378  158.1274 C.ar    1  UNL1        0.1005
     16 N         143.1824  142.0569  158.5605 N.ar    1  UNL1       -0.2263
     17 C         142.8687  140.6748  158.0693 C.ar    1  UNL1        0.1507
     18 C         141.9276  136.5282  156.5958 C.2     1  UNL1        0.2504
     19 O         140.6426  136.2645  155.8684 O.2     1  UNL1       -0.2700
     20 N         142.8989  135.4099  156.8321 N.am    1  UNL1       -0.3024
     21 H         143.7423  135.5830  157.3095 H       1  UNL1        0.1497
     22 C         142.5851  134.0278  156.3409 C.3     1  UNL1        0.0720
     23 C         141.9441  133.1222  155.3315 C.3     1  UNL1        0.0213
     24 C         142.6827  132.5394  156.4997 C.3     1  UNL1        0.0213
     25 C         140.6173  141.6513  164.7497 C.1     1  UNL1       -0.0535
     26 C         140.3125  141.5663  163.2835 C.1     1  UNL1       -0.0595
     27 C         141.5319  141.9062  169.1485 C.ar    1  UNL1        0.2374
     28 C         140.6334  142.9230  168.5092 C.ar    1  UNL1        0.0690
     29 C         140.3286  142.8380  167.0429 C.ar    1  UNL1        0.0203
     30 C         140.9222  141.7363  166.2160 C.ar    1  UNL1        0.1130
     31 C         141.8207  140.7195  166.8554 C.ar    1  UNL1        0.3095
     32 N         142.1255  140.8044  168.3216 N.ar    1  UNL1       -0.1582
     33 O         143.0240  139.7875  168.9609 O.co2   1  UNL1       -0.6190
     34 C         140.6870  141.0731  170.9069 C.3     1  UNL1        0.0403
     35 C         141.8368  141.9911  170.6147 C.3     1  UNL1        0.1664
     36 C         142.9865  142.9090  170.3225 C.3     1  UNL1        0.0403
     37 O         142.1416  142.0760  172.0809 O.3     1  UNL1       -0.3767
     38 H         141.5064  141.5346  172.5751 H       1  UNL1        0.2109
@<TRIPOS>UNITY_ATOM_ATTR
32 1
charge 1
33 1
charge -1
@<TRIPOS>BOND
     1    34    35    1
     2    35    36    1
     3    35    37    1
     4    35    27    1
     5    27    28   ar
     6    28    29   ar
     7    29    30   ar
     8    30    25    1
     9    25    26    3
    10    26     1    1
    11     1     2   ar
    12     2     3   ar
    13     3     4   ar
    14     4     5   ar
    15     5     7    1
    16     7     8   ar
    17     8     9   ar
    18     9    18    1
    19    18    19    2
    20    18    20   am
    21    20    22    1
    22    22    23    1
    23    23    24    1
    24     9    10   ar
    25    10    11    2
    26    10    12   ar
    27    12    13   ar
    28    13    14   ar
    29    14    15   ar
    30    15    16   ar
    31    16    17   ar
    32     5     6   ar
    33    30    31   ar
    34    31    32   ar
    35    32    33    1
    36    32    27   ar
    37     6     1   ar
    38    17     7   ar
    39    24    22    1
    40    17    12   ar
    41    37    38    1
    42    20    21    1
@<TRIPOS>MOLECULE
*****
 38 42 0 0 0
SMALL
GASTEIGER

@<TRIPOS>ATOM
      1 C         140.6601  143.5203  161.9605 C.ar    1  UNL1        0.0434
      2 C         140.8918  144.9487  161.5655 C.ar    1  UNL1        0.0083
      3 C         140.6535  145.3835  160.1499 C.ar    1  UNL1        0.0021
      4 C         140.1834  144.3900  159.1292 C.ar    1  UNL1        0.0176
      5 C         139.9517  142.9616  159.5241 C.ar    1  UNL1        0.0660
      6 C         140.1900  142.5267  160.9398 C.ar    1  UNL1        0.0258
      7 N         139.4816  141.9680  158.5033 N.ar    1  UNL1       -0.2900
      8 C         138.0655  142.0116  158.0109 C.ar    1  UNL1        0.0891
      9 C         137.5954  141.0180  156.9902 C.ar    1  UNL1        0.1098
     10 C         138.5415  139.9809  156.4619 C.ar    1  UNL1        0.2043
     11 O         138.0715  138.9873  155.4412 O.2     1  UNL1       -0.2863
     12 C         139.9578  139.9373  156.9543 C.ar    1  UNL1        0.0736
     13 C         140.9039  138.9001  156.4260 C.ar    1  UNL1        0.0078
     14 C         142.3201  138.8566  156.9184 C.ar    1  UNL1        0.0209
     15 C         142.7901  139.8501  157.9392 C.ar    1  UNL1        0.1005
     16 N         141.8440  140.8873  158.4675 N.ar    1  UNL1       -0.2263
     17 C         140.4278  140.9308  157.9750 C.ar    1  UNL1        0.1507
     18 C         136.1792  141.0616  156.4978 C.2     1  UNL1        0.2504
     19 O         135.7826  142.0498  155.4412 O.2     1  UNL1       -0.2700
     20 N         135.1596  140.1172  157.0619 N.am    1  UNL1       -0.3024
     21 H         135.4198  139.4686  157.7554 H       1  UNL1        0.1497
     22 C         133.7434  140.1608  156.5695 C.3     1  UNL1        0.0720
     23 C         132.6408  140.8765  155.8470 C.3     1  UNL1        0.0213
     24 C         132.3931  139.5207  156.4391 C.3     1  UNL1        0.0213
     25 C         141.1367  142.6507  164.7918 C.1     1  UNL1       -0.0535
     26 C         140.8984  143.0855  163.3761 C.1     1  UNL1       -0.0595
     27 C         141.8518  141.3462  169.0389 C.ar    1  UNL1        0.2374
     28 C         142.9845  141.8930  168.2214 C.ar    1  UNL1        0.0690
     29 C         142.7461  142.3278  166.8057 C.ar    1  UNL1        0.0203
     30 C         141.3751  142.2158  166.2075 C.ar    1  UNL1        0.1130
     31 C         140.2425  141.6690  167.0249 C.ar    1  UNL1        0.3095
     32 N         140.4808  141.2342  168.4406 N.ar    1  UNL1       -0.1582
     33 O         139.3482  140.6874  169.2580 O.co2   1  UNL1       -0.6190
     34 C         141.8010  142.3039  170.9309 C.3     1  UNL1        0.0403
     35 C         142.0902  140.9113  170.4545 C.3     1  UNL1        0.1664
     36 C         142.3794  139.5188  169.9781 C.3     1  UNL1        0.0403
     37 O         142.3285  140.4765  171.8701 O.3     1  UNL1       -0.3767
     38 H         142.2036  141.2318  172.4658 H       1  UNL1        0.2109
@<TRIPOS>UNITY_ATOM_ATTR
32 1
charge 1
33 1
charge -1
@<TRIPOS>BOND
     1    34    35    1
     2    35    36    1
     3    35    37    1
     4    35    27    1
     5    27    28   ar
     6    28    29   ar
     7    29    30   ar
     8    30    25    1
     9    25    26    3
    10    26     1    1
    11     1     2   ar
    12     2     3   ar
    13     3     4   ar
    14     4     5   ar
    15     5     7    1
    16     7     8   ar
    17     8     9   ar
    18     9    18    1
    19    18    19    2
    20    18    20   am
    21    20    22    1
    22    22    23    1
    23    23    24    1
    24     9    10   ar
    25    10    11    2
    26    10    12   ar
    27    12    13   ar
    28    13    14   ar
    29    14    15   ar
    30    15    16   ar
    31    16    17   ar
    32     5     6   ar
    33    30    31   ar
    34    31    32   ar
    35    32    33    1
    36    32    27   ar
    37     6     1   ar
    38    17     7   ar
    39    24    22    1
    40    17    12   ar
    41    37    38    1
    42    20    21    1
@<TRIPOS>MOLECULE
*****
 38 42 0 0 0
SMALL
GASTEIGER

@<TRIPOS>ATOM
      1 C         142.6812  142.7640  161.1639 C.ar    1  UNL1        0.0434
      2 C         144.0143  142.3942  160.5842 C.ar    1  UNL1        0.0083
      3 C         144.2390  142.4827  159.1038 C.ar    1  UNL1        0.0021
      4 C         143.1306  142.9411  158.2031 C.ar    1  UNL1        0.0176
      5 C         141.7975  143.3109  158.7827 C.ar    1  UNL1        0.0660
      6 C         141.5727  143.2223  160.2632 C.ar    1  UNL1        0.0258
      7 N         140.6891  143.7692  157.8820 N.ar    1  UNL1       -0.2900
      8 C         140.7336  145.1406  157.2760 C.ar    1  UNL1        0.0891
      9 C         139.6252  145.5989  156.3753 C.ar    1  UNL1        0.1098
     10 C         138.4723  144.6859  156.0805 C.ar    1  UNL1        0.2043
     11 O         137.3638  145.1442  155.1797 O.2     1  UNL1       -0.2863
     12 C         138.4277  143.3144  156.6864 C.ar    1  UNL1        0.0736
     13 C         137.2747  142.4013  156.3916 C.ar    1  UNL1        0.0078
     14 C         137.2302  141.0299  156.9976 C.ar    1  UNL1        0.0209
     15 C         138.3386  140.5716  157.8983 C.ar    1  UNL1        0.1005
     16 N         139.4915  141.4846  158.1931 N.ar    1  UNL1       -0.2263
     17 C         139.5361  142.8560  157.5872 C.ar    1  UNL1        0.1507
     18 C         139.6698  146.9704  155.7693 C.2     1  UNL1        0.2504
     19 O         140.6295  147.2673  154.6554 O.2     1  UNL1       -0.2700
     20 N         138.7547  148.0449  156.2772 N.am    1  UNL1       -0.3024
     21 H         138.1248  147.8500  157.0083 H       1  UNL1        0.1497
     22 C         138.7993  149.4163  155.6713 C.3     1  UNL1        0.0720
     23 C         139.2275  150.3344  154.5651 C.3     1  UNL1        0.0213
     24 C         138.4484  150.8736  155.7279 C.3     1  UNL1        0.0213
     25 C         142.2318  142.5868  164.1247 C.1     1  UNL1       -0.0535
     26 C         142.4565  142.6754  162.6443 C.1     1  UNL1       -0.0595
     27 C         141.5578  142.3210  168.5661 C.ar    1  UNL1        0.2374
     28 C         140.3994  142.1877  167.6224 C.ar    1  UNL1        0.0690
     29 C         140.6241  142.2763  166.1419 C.ar    1  UNL1        0.0203
     30 C         142.0071  142.4982  165.6052 C.ar    1  UNL1        0.1130
     31 C         143.1654  142.6316  166.5489 C.ar    1  UNL1        0.3095
     32 N         142.9408  142.5430  168.0293 N.ar    1  UNL1       -0.1582
     33 O         144.0991  142.6763  168.9729 O.co2   1  UNL1       -0.6190
     34 C         141.7158  140.7823  170.0178 C.3     1  UNL1        0.0403
     35 C         141.3331  142.2324  170.0465 C.3     1  UNL1        0.1664
     36 C         140.9505  143.6825  170.0752 C.3     1  UNL1        0.0403
     37 O         141.1085  142.1438  171.5269 O.3     1  UNL1       -0.3767
     38 H         141.2934  141.2406  171.8285 H       1  UNL1        0.2109
@<TRIPOS>UNITY_ATOM_ATTR
32 1
charge 1
33 1
charge -1
@<TRIPOS>BOND
     1    34    35    1
     2    35    36    1
     3    35    37    1
     4    35    27    1
     5    27    28   ar
     6    28    29   ar
     7    29    30   ar
     8    30    25    1
     9    25    26    3
    10    26     1    1
    11     1     2   ar
    12     2     3   ar
    13     3     4   ar
    14     4     5   ar
    15     5     7    1
    16     7     8   ar
    17     8     9   ar
    18     9    18    1
    19    18    19    2
    20    18    20   am
    21    20    22    1
    22    22    23    1
    23    23    24    1
    24     9    10   ar
    25    10    11    2
    26    10    12   ar
    27    12    13   ar
    28    13    14   ar
    29    14    15   ar
    30    15    16   ar
    31    16    17   ar
    32     5     6   ar
    33    30    31   ar
    34    31    32   ar
    35    32    33    1
    36    32    27   ar
    37     6     1   ar
    38    17     7   ar
    39    24    22    1
    40    17    12   ar
    41    37    38    1
    42    20    21    1
@<TRIPOS>MOLECULE
*****
 38 42 0 0 0
SMALL
GASTEIGER

@<TRIPOS>ATOM
      1 C         143.2450  141.5370  161.9777 C.ar    1  UNL1        0.0434
      2 C         144.3011  142.5103  161.5447 C.ar    1  UNL1        0.0083
      3 C         144.6759  142.6151  160.0961 C.ar    1  UNL1        0.0021
      4 C         143.9947  141.7466  159.0804 C.ar    1  UNL1        0.0176
      5 C         142.9386  140.7733  159.5133 C.ar    1  UNL1        0.0660
      6 C         142.5637  140.6685  160.9620 C.ar    1  UNL1        0.0258
      7 N         142.2574  139.9048  158.4977 N.ar    1  UNL1       -0.2900
      8 C         142.9495  138.6828  157.9707 C.ar    1  UNL1        0.0891
      9 C         142.2682  137.8143  156.9550 C.ar    1  UNL1        0.1098
     10 C         140.8949  138.1678  156.4663 C.ar    1  UNL1        0.2043
     11 O         140.2136  137.2993  155.4506 O.2     1  UNL1       -0.2863
     12 C         140.2027  139.3898  156.9933 C.ar    1  UNL1        0.0736
     13 C         138.8293  139.7433  156.5046 C.ar    1  UNL1        0.0078
     14 C         138.1372  140.9652  157.0315 C.ar    1  UNL1        0.0209
     15 C         138.8184  141.8337  158.0472 C.ar    1  UNL1        0.1005
     16 N         140.1918  141.4803  158.5359 N.ar    1  UNL1       -0.2263
     17 C         140.8839  140.2583  158.0090 C.ar    1  UNL1        0.1507
     18 C         142.9604  136.5923  156.4281 C.2     1  UNL1        0.2504
     19 O         144.3460  136.6999  155.8636 O.2     1  UNL1       -0.2700
     20 N         142.2670  135.2628  156.4656 N.am    1  UNL1       -0.3024
     21 H         141.3576  135.1921  156.8360 H       1  UNL1        0.1497
     22 C         142.9592  134.0408  155.9386 C.3     1  UNL1        0.0720
     23 C         144.0517  133.0186  156.0463 C.3     1  UNL1        0.0213
     24 C         143.0657  132.9466  154.9182 C.3     1  UNL1        0.0213
     25 C         142.4954  141.3275  164.8749 C.1     1  UNL1       -0.0535
     26 C         142.8702  141.4323  163.4263 C.1     1  UNL1       -0.0595
     27 C         141.3710  141.0132  169.2209 C.ar    1  UNL1        0.2374
     28 C         140.8147  142.1244  168.3808 C.ar    1  UNL1        0.0690
     29 C         141.1895  142.2292  166.9321 C.ar    1  UNL1        0.0203
     30 C         142.1206  141.2228  166.3236 C.ar    1  UNL1        0.1130
     31 C         142.6769  140.1116  167.1637 C.ar    1  UNL1        0.3095
     32 N         142.3021  140.0068  168.6123 N.ar    1  UNL1       -0.1582
     33 O         142.8584  138.8956  169.4524 O.co2   1  UNL1       -0.6190
     34 C         139.8224  140.0494  170.3037 C.3     1  UNL1        0.0403
     35 C         140.9963  140.9084  170.6695 C.3     1  UNL1        0.1664
     36 C         142.1702  141.7674  171.0353 C.3     1  UNL1        0.0403
     37 O         140.6215  140.8036  172.1181 O.3     1  UNL1       -0.3767
     38 H         139.8250  140.2572  172.2073 H       1  UNL1        0.2109
@<TRIPOS>UNITY_ATOM_ATTR
32 1
charge 1
33 1
charge -1
@<TRIPOS>BOND
     1    34    35    1
     2    35    36    1
     3    35    37    1
     4    35    27    1
     5    27    28   ar
     6    28    29   ar
     7    29    30   ar
     8    30    25    1
     9    25    26    3
    10    26     1    1
    11     1     2   ar
    12     2     3   ar
    13     3     4   ar
    14     4     5   ar
    15     5     7    1
    16     7     8   ar
    17     8     9   ar
    18     9    18    1
    19    18    19    2
    20    18    20   am
    21    20    22    1
    22    22    23    1
    23    23    24    1
    24     9    10   ar
    25    10    11    2
    26    10    12   ar
    27    12    13   ar
    28    13    14   ar
    29    14    15   ar
    30    15    16   ar
    31    16    17   ar
    32     5     6   ar
    33    30    31   ar
    34    31    32   ar
    35    32    33    1
    36    32    27   ar
    37     6     1   ar
    38    17     7   ar
    39    24    22    1
    40    17    12   ar
    41    37    38    1
    42    20    21    1
@<TRIPOS>MOLECULE
*****
 38 42 0 0 0
SMALL
GASTEIGER

@<TRIPOS>ATOM
      1 C         142.1420  141.6996  161.4653 C.ar    1  UNL1        0.0434
      2 C         143.2240  142.5993  160.9459 C.ar    1  UNL1        0.0083
      3 C         143.4272  142.7519  159.4676 C.ar    1  UNL1        0.0021
      4 C         142.5485  142.0047  158.5087 C.ar    1  UNL1        0.0176
      5 C         141.4665  141.1050  159.0280 C.ar    1  UNL1        0.0660
      6 C         141.2632  140.9524  160.5064 C.ar    1  UNL1        0.0258
      7 N         140.5877  140.3579  158.0691 N.ar    1  UNL1       -0.2900
      8 C         139.2732  140.9427  157.6448 C.ar    1  UNL1        0.0891
      9 C         138.3944  140.1956  156.6859 C.ar    1  UNL1        0.1098
     10 C         138.8301  138.8636  156.1513 C.ar    1  UNL1        0.2043
     11 O         137.9514  138.1164  155.1923 O.2     1  UNL1       -0.2863
     12 C         140.1447  138.2787  156.5755 C.ar    1  UNL1        0.0736
     13 C         140.5804  136.9467  156.0409 C.ar    1  UNL1        0.0078
     14 C         141.8949  136.3618  156.4651 C.ar    1  UNL1        0.0209
     15 C         142.7736  137.1090  157.4241 C.ar    1  UNL1        0.1005
     16 N         142.3379  138.4410  157.9587 N.ar    1  UNL1       -0.2263
     17 C         141.0235  139.0258  157.5344 C.ar    1  UNL1        0.1507
     18 C         137.0799  140.7805  156.2617 C.2     1  UNL1        0.2504
     19 O         136.9619  142.2541  156.0073 O.2     1  UNL1       -0.2700
     20 N         135.8835  139.8919  156.0918 N.am    1  UNL1       -0.3024
     21 H         135.9610  138.9247  156.2587 H       1  UNL1        0.1497
     22 C         134.5690  140.4768  155.6675 C.3     1  UNL1        0.0720
     23 C         133.7546  141.2652  154.6852 C.3     1  UNL1        0.0213
     24 C         133.1068  140.7016  155.9151 C.3     1  UNL1        0.0213
     25 C         141.7356  141.3945  164.4219 C.1     1  UNL1       -0.0535
     26 C         141.9388  141.5470  162.9436 C.1     1  UNL1       -0.0595
     27 C         141.1258  140.9366  168.8569 C.ar    1  UNL1        0.2374
     28 C         142.2899  141.7272  168.3376 C.ar    1  UNL1        0.0690
     29 C         142.4932  141.8799  166.8592 C.ar    1  UNL1        0.0203
     30 C         141.5323  141.2419  165.9002 C.ar    1  UNL1        0.1130
     31 C         140.3682  140.4512  166.4196 C.ar    1  UNL1        0.3095
     32 N         140.1649  140.2986  167.8978 N.ar    1  UNL1       -0.1582
     33 O         139.0008  139.5080  168.4172 O.co2   1  UNL1       -0.6190
     34 C         140.0784  142.0238  170.3471 C.3     1  UNL1        0.0403
     35 C         140.9225  140.7840  170.3352 C.3     1  UNL1        0.1664
     36 C         141.7666  139.5441  170.3232 C.3     1  UNL1        0.0403
     37 O         140.7193  140.6314  171.8134 O.3     1  UNL1       -0.3767
     38 H         140.1608  141.3544  172.1394 H       1  UNL1        0.2109
@<TRIPOS>UNITY_ATOM_ATTR
32 1
charge 1
33 1
charge -1
@<TRIPOS>BOND
     1    34    35    1
     2    35    36    1
     3    35    37    1
     4    35    27    1
     5    27    28   ar
     6    28    29   ar
     7    29    30   ar
     8    30    25    1
     9    25    26    3
    10    26     1    1
    11     1     2   ar
    12     2     3   ar
    13     3     4   ar
    14     4     5   ar
    15     5     7    1
    16     7     8   ar
    17     8     9   ar
    18     9    18    1
    19    18    19    2
    20    18    20   am
    21    20    22    1
    22    22    23    1
    23    23    24    1
    24     9    10   ar
    25    10    11    2
    26    10    12   ar
    27    12    13   ar
    28    13    14   ar
    29    14    15   ar
    30    15    16   ar
    31    16    17   ar
    32     5     6   ar
    33    30    31   ar
    34    31    32   ar
    35    32    33    1
    36    32    27   ar
    37     6     1   ar
    38    17     7   ar
    39    24    22    1
    40    17    12   ar
    41    37    38    1
    42    20    21    1
@<TRIPOS>MOLECULE
*****
 38 42 0 0 0
SMALL
GASTEIGER

@<TRIPOS>ATOM
      1 C         139.2302  140.8361  161.9839 C.ar    1  UNL1        0.0434
      2 C         138.0492  140.0155  161.5573 C.ar    1  UNL1        0.0083
      3 C         137.6284  139.9985  160.1177 C.ar    1  UNL1        0.0021
      4 C         138.3886  140.8020  159.1046 C.ar    1  UNL1        0.0176
      5 C         139.5696  141.6226  159.5311 C.ar    1  UNL1        0.0660
      6 C         139.9904  141.6396  160.9708 C.ar    1  UNL1        0.0258
      7 N         140.3298  142.4261  158.5180 N.ar    1  UNL1       -0.2900
      8 C         139.6679  143.5814  157.8272 C.ar    1  UNL1        0.0891
      9 C         140.4281  144.3849  156.8141 C.ar    1  UNL1        0.1098
     10 C         141.8502  144.0332  156.4917 C.ar    1  UNL1        0.2043
     11 O         142.6104  144.8368  155.4786 O.2     1  UNL1       -0.2863
     12 C         142.5121  142.8779  157.1825 C.ar    1  UNL1        0.0736
     13 C         143.9342  142.5262  156.8602 C.ar    1  UNL1        0.0078
     14 C         144.5961  141.3709  157.5510 C.ar    1  UNL1        0.0209
     15 C         143.8359  140.5674  158.5641 C.ar    1  UNL1        0.1005
     16 N         142.4138  140.9191  158.8864 N.ar    1  UNL1       -0.2263
     17 C         141.7519  142.0744  158.1956 C.ar    1  UNL1        0.1507
     18 C         139.7661  145.5403  156.1233 C.2     1  UNL1        0.2504
     19 O         138.3978  145.3759  155.5311 O.2     1  UNL1       -0.2700
     20 N         140.4725  146.8598  156.0247 N.am    1  UNL1       -0.3024
     21 H         141.3706  146.9677  156.4133 H       1  UNL1        0.1497
     22 C         139.8106  148.0150  155.3339 C.3     1  UNL1        0.0720
     23 C         139.6334  148.8716  154.1154 C.3     1  UNL1        0.0213
     24 C         138.8411  149.1595  155.3561 C.3     1  UNL1        0.0213
     25 C         140.0717  140.8702  164.8632 C.1     1  UNL1       -0.0535
     26 C         139.6509  140.8531  163.4236 C.1     1  UNL1       -0.0595
     27 C         141.3340  140.9211  169.1823 C.ar    1  UNL1        0.2374
     28 C         140.1834  140.0627  168.7473 C.ar    1  UNL1        0.0690
     29 C         139.7626  140.0457  167.3076 C.ar    1  UNL1        0.0203
     30 C         140.4924  140.8871  166.3030 C.ar    1  UNL1        0.1130
     31 C         141.6430  141.7456  166.7380 C.ar    1  UNL1        0.3095
     32 N         142.0638  141.7626  168.1776 N.ar    1  UNL1       -0.1582
     33 O         143.2144  142.6211  168.6126 O.co2   1  UNL1       -0.6190
     34 C         140.7868  142.0518  170.8917 C.3     1  UNL1        0.0403
     35 C         141.7548  140.9382  170.6220 C.3     1  UNL1        0.1664
     36 C         142.7227  139.8245  170.3522 C.3     1  UNL1        0.0403
     37 O         142.1755  140.9552  172.0616 O.3     1  UNL1       -0.3767
     38 H         141.6761  141.6378  172.5364 H       1  UNL1        0.2109
@<TRIPOS>UNITY_ATOM_ATTR
32 1
charge 1
33 1
charge -1
@<TRIPOS>BOND
     1    34    35    1
     2    35    36    1
     3    35    37    1
     4    35    27    1
     5    27    28   ar
     6    28    29   ar
     7    29    30   ar
     8    30    25    1
     9    25    26    3
    10    26     1    1
    11     1     2   ar
    12     2     3   ar
    13     3     4   ar
    14     4     5   ar
    15     5     7    1
    16     7     8   ar
    17     8     9   ar
    18     9    18    1
    19    18    19    2
    20    18    20   am
    21    20    22    1
    22    22    23    1
    23    23    24    1
    24     9    10   ar
    25    10    11    2
    26    10    12   ar
    27    12    13   ar
    28    13    14   ar
    29    14    15   ar
    30    15    16   ar
    31    16    17   ar
    32     5     6   ar
    33    30    31   ar
    34    31    32   ar
    35    32    33    1
    36    32    27   ar
    37     6     1   ar
    38    17     7   ar
    39    24    22    1
    40    17    12   ar
    41    37    38    1
    42    20    21    1
@<TRIPOS>MOLECULE
*****
 38 42 0 0 0
SMALL
GASTEIGER

@<TRIPOS>ATOM
      1 C         139.1963  140.8803  161.8148 C.ar    1  UNL1        0.0434
      2 C         138.3216  142.0690  161.5463 C.ar    1  UNL1        0.0083
      3 C         137.8013  142.8905  162.6884 C.ar    1  UNL1        0.0021
      4 C         138.1556  142.5233  164.0989 C.ar    1  UNL1        0.0176
      5 C         139.0302  141.3347  164.3674 C.ar    1  UNL1        0.0660
      6 C         139.5506  140.5131  163.2253 C.ar    1  UNL1        0.0258
      7 N         139.3845  140.9676  165.7780 N.ar    1  UNL1       -0.2900
      8 C         138.4091  140.2008  166.6210 C.ar    1  UNL1        0.0891
      9 C         138.7634  139.8337  168.0315 C.ar    1  UNL1        0.1098
     10 C         140.0931  140.2333  168.5991 C.ar    1  UNL1        0.2043
     11 O         140.4474  139.8661  170.0097 O.2     1  UNL1       -0.2863
     12 C         141.0686  141.0001  167.7561 C.ar    1  UNL1        0.0736
     13 C         142.3983  141.3997  168.3237 C.ar    1  UNL1        0.0078
     14 C         143.3737  142.1664  167.4807 C.ar    1  UNL1        0.0209
     15 C         143.0194  142.5336  166.0702 C.ar    1  UNL1        0.1005
     16 N         141.6897  142.1340  165.5026 N.ar    1  UNL1       -0.2263
     17 C         140.7143  141.3672  166.3456 C.ar    1  UNL1        0.1507
     18 C         137.7880  139.0669  168.8745 C.2     1  UNL1        0.2504
     19 O         136.9745  137.9641  168.2646 O.2     1  UNL1       -0.2700
     20 N         137.6260  139.4029  170.3274 N.am    1  UNL1       -0.3024
     21 H         138.1600  140.1267  170.7277 H       1  UNL1        0.1497
     22 C         136.6506  138.6361  171.1702 C.3     1  UNL1        0.0720
     23 C         135.3294  138.5506  171.8752 C.3     1  UNL1        0.0213
     24 C         136.2824  137.3934  171.9253 C.3     1  UNL1        0.0213
     25 C         140.2369  139.2373  159.5306 C.1     1  UNL1       -0.0535
     26 C         139.7166  140.0588  160.6727 C.1     1  UNL1       -0.0595
     27 C         141.7978  136.7728  156.1042 C.ar    1  UNL1        0.2374
     28 C         142.7346  137.2448  157.1764 C.ar    1  UNL1        0.0690
     29 C         142.2143  138.0663  158.3186 C.ar    1  UNL1        0.0203
     30 C         140.7573  138.4158  158.3885 C.ar    1  UNL1        0.1130
     31 C         139.8205  137.9437  157.3163 C.ar    1  UNL1        0.3095
     32 N         140.3407  137.1223  156.1741 N.ar    1  UNL1       -0.1582
     33 O         139.4040  136.6502  155.1019 O.co2   1  UNL1       -0.6190
     34 C         142.0428  134.6977  155.7383 C.3     1  UNL1        0.0403
     35 C         142.3181  135.9513  154.9621 C.3     1  UNL1        0.1664
     36 C         142.5933  137.2049  154.1858 C.3     1  UNL1        0.0403
     37 O         142.8383  135.1298  153.8200 O.3     1  UNL1       -0.3767
     38 H         142.7826  134.1885  154.0470 H       1  UNL1        0.2109
@<TRIPOS>UNITY_ATOM_ATTR
32 1
charge 1
33 1
charge -1
@<TRIPOS>BOND
     1    34    35    1
     2    35    36    1
     3    35    37    1
     4    35    27    1
     5    27    28   ar
     6    28    29   ar
     7    29    30   ar
     8    30    25    1
     9    25    26    3
    10    26     1    1
    11     1     2   ar
    12     2     3   ar
    13     3     4   ar
    14     4     5   ar
    15     5     7    1
    16     7     8   ar
    17     8     9   ar
    18     9    18    1
    19    18    19    2
    20    18    20   am
    21    20    22    1
    22    22    23    1
    23    23    24    1
    24     9    10   ar
    25    10    11    2
    26    10    12   ar
    27    12    13   ar
    28    13    14   ar
    29    14    15   ar
    30    15    16   ar
    31    16    17   ar
    32     5     6   ar
    33    30    31   ar
    34    31    32   ar
    35    32    33    1
    36    32    27   ar
    37     6     1   ar
    38    17     7   ar
    39    24    22    1
    40    17    12   ar
    41    37    38    1
    42    20    21    1
@<TRIPOS>MOLECULE
*****
 38 42 0 0 0
SMALL
GASTEIGER

@<TRIPOS>ATOM
      1 C         142.5500  139.3370  161.9670 C.ar    1  UNL1        0.0434
      2 C         142.6561  137.8784  161.6330 C.ar    1  UNL1        0.0083
      3 C         142.8776  137.4483  160.2132 C.ar    1  UNL1        0.0021
      4 C         142.9930  138.4766  159.1273 C.ar    1  UNL1        0.0176
      5 C         142.8869  139.9351  159.4612 C.ar    1  UNL1        0.0660
      6 C         142.6654  140.3653  160.8811 C.ar    1  UNL1        0.0258
      7 N         143.0023  140.9635  158.3753 N.ar    1  UNL1       -0.2900
      8 C         144.2314  141.0130  157.5169 C.ar    1  UNL1        0.0891
      9 C         144.3468  142.0414  156.4310 C.ar    1  UNL1        0.1098
     10 C         143.2332  143.0202  156.2035 C.ar    1  UNL1        0.2043
     11 O         143.3486  144.0485  155.1176 O.2     1  UNL1       -0.2863
     12 C         142.0040  142.9706  157.0620 C.ar    1  UNL1        0.0736
     13 C         140.8904  143.9494  156.8345 C.ar    1  UNL1        0.0078
     14 C         139.6614  143.8998  157.6929 C.ar    1  UNL1        0.0209
     15 C         139.5459  142.8714  158.7788 C.ar    1  UNL1        0.1005
     16 N         140.6596  141.8927  159.0063 N.ar    1  UNL1       -0.2263
     17 C         141.8886  141.9423  158.1479 C.ar    1  UNL1        0.1507
     18 C         145.5759  142.0909  155.5726 C.2     1  UNL1        0.2504
     19 O         146.2420  140.8177  155.1422 O.2     1  UNL1       -0.2700
     20 N         146.1390  143.4137  155.1445 N.am    1  UNL1       -0.3024
     21 H         145.7018  144.2494  155.4270 H       1  UNL1        0.1497
     22 C         147.3680  143.4632  154.2861 C.3     1  UNL1        0.0720
     23 C         148.1868  144.1407  153.2276 C.3     1  UNL1        0.0213
     24 C         148.6781  142.8713  153.8579 C.3     1  UNL1        0.0213
     25 C         142.1069  140.1972  164.8066 C.1     1  UNL1       -0.0535
     26 C         142.3285  139.7671  163.3868 C.1     1  UNL1       -0.0595
     27 C         141.4424  141.4875  169.0662 C.ar    1  UNL1        0.2374
     28 C         142.5249  142.1278  168.2488 C.ar    1  UNL1        0.0690
     29 C         142.7464  141.6977  166.8289 C.ar    1  UNL1        0.0203
     30 C         141.8854  140.6273  166.2265 C.ar    1  UNL1        0.1130
     31 C         140.8029  139.9870  167.0439 C.ar    1  UNL1        0.3095
     32 N         140.5814  140.4171  168.4637 N.ar    1  UNL1       -0.1582
     33 O         139.4988  139.7767  169.2811 O.co2   1  UNL1       -0.6190
     34 C         140.3142  143.0146  170.0122 C.3     1  UNL1        0.0403
     35 C         141.2208  141.9175  170.4860 C.3     1  UNL1        0.1664
     36 C         142.1275  140.8205  170.9597 C.3     1  UNL1        0.0403
     37 O         140.9993  142.3476  171.9058 O.3     1  UNL1       -0.3767
     38 H         140.3988  143.1092  171.9230 H       1  UNL1        0.2109
@<TRIPOS>UNITY_ATOM_ATTR
32 1
charge 1
33 1
charge -1
@<TRIPOS>BOND
     1    34    35    1
     2    35    36    1
     3    35    37    1
     4    35    27    1
     5    27    28   ar
     6    28    29   ar
     7    29    30   ar
     8    30    25    1
     9    25    26    3
    10    26     1    1
    11     1     2   ar
    12     2     3   ar
    13     3     4   ar
    14     4     5   ar
    15     5     7    1
    16     7     8   ar
    17     8     9   ar
    18     9    18    1
    19    18    19    2
    20    18    20   am
    21    20    22    1
    22    22    23    1
    23    23    24    1
    24     9    10   ar
    25    10    11    2
    26    10    12   ar
    27    12    13   ar
    28    13    14   ar
    29    14    15   ar
    30    15    16   ar
    31    16    17   ar
    32     5     6   ar
    33    30    31   ar
    34    31    32   ar
    35    32    33    1
    36    32    27   ar
    37     6     1   ar
    38    17     7   ar
    39    24    22    1
    40    17    12   ar
    41    37    38    1
    42    20    21    1
