@<TRIPOS>MOLECULE
*****
 22 25 0 0 0
SMALL
GASTEIGER

@<TRIPOS>ATOM
      1 O         136.9242  138.2644  167.1737 O.2     1  UNL1       -0.2638
      2 C         138.2770  138.7153  166.7081 C.ar    1  UNL1        0.2947
      3 N         138.7257  138.4184  165.3080 N.ar    1  UNL1       -0.3062
      4 C         140.0784  138.8694  164.8424 C.ar    1  UNL1        0.1338
      5 N         140.9825  139.6172  165.7771 N.ar    1  UNL1       -0.2279
      6 C         140.5338  139.9141  167.1772 C.ar    1  UNL1        0.1247
      7 C         139.1810  139.4632  167.6428 C.ar    1  UNL1        0.2184
      8 O         139.0130  139.8975  169.0686 O.2     1  UNL1       -0.4471
      9 C         140.2620  140.6168  169.4843 C.ar    1  UNL1        0.1471
     10 C         140.6648  141.2638  170.7762 C.ar    1  UNL1        0.0384
     11 C         142.0075  141.9211  170.8992 C.ar    1  UNL1        0.0145
     12 C         142.9473  141.9313  169.7302 C.ar    1  UNL1        0.0579
     13 CL        144.2901  142.5886  169.8532 Cl      1  UNL1       -0.0822
     14 C         142.5445  141.2843  168.4383 C.ar    1  UNL1        0.0160
     15 C         141.2018  140.6271  168.3153 C.ar    1  UNL1        0.0562
     16 H         138.1323  137.9276  164.6946 H       1  UNL1        0.1702
     17 C         140.5272  138.5725  163.4422 C.3     1  UNL1        0.1116
     18 C         141.8172  137.9147  163.0506 C.3     1  UNL1        0.0249
     19 C         141.8520  137.8169  161.5542 C.3     1  UNL1        0.0189
     20 C         140.5836  138.4142  161.0210 C.3     1  UNL1        0.0689
     21 N         139.7648  138.8811  162.1879 N.3     1  UNL1       -0.2926
     22 H         138.8686  138.3942  162.1988 H       1  UNL1        0.1236
@<TRIPOS>BOND
     1     1     2    2
     2     2     3   ar
     3     3     4   ar
     4    17     4    1
     5    17    18    1
     6    18    19    1
     7    19    20    1
     8    20    21    1
     9     4     5   ar
    10     5     6   ar
    11     6     7   ar
    12     7     8   ar
    13     8     9   ar
    14     9    10   ar
    15    10    11   ar
    16    11    12   ar
    17    12    13    1
    18    12    14   ar
    19    14    15   ar
    20     7     2   ar
    21    15     9   ar
    22    21    17    1
    23    15     6   ar
    24     3    16    1
    25    21    22    1
@<TRIPOS>MOLECULE
*****
 22 25 0 0 0
SMALL
GASTEIGER

@<TRIPOS>ATOM
      1 O         137.0009  137.6597  167.2722 O.2     1  UNL1       -0.2638
      2 C         138.1303  138.6036  166.9830 C.ar    1  UNL1        0.2947
      3 N         138.6299  139.5261  168.0551 N.ar    1  UNL1       -0.3062
      4 C         139.7592  140.4699  167.7659 C.ar    1  UNL1        0.1338
      5 N         140.3890  140.4913  166.4047 N.ar    1  UNL1       -0.2279
      6 C         139.8895  139.5687  165.3326 C.ar    1  UNL1        0.1247
      7 C         138.7601  138.6249  165.6218 C.ar    1  UNL1        0.2184
      8 O         138.4826  137.8384  164.3750 O.2     1  UNL1       -0.4471
      9 C         139.4405  138.2961  163.3153 C.ar    1  UNL1        0.1471
     10 C         139.6333  137.8773  161.8880 C.ar    1  UNL1        0.0384
     11 C         140.6956  138.5280  161.0525 C.ar    1  UNL1        0.0145
     12 C         141.5651  139.5974  161.6443 C.ar    1  UNL1        0.0579
     13 CL        142.6275  140.2481  160.8087 Cl      1  UNL1       -0.0822
     14 C         141.3723  140.0162  163.0717 C.ar    1  UNL1        0.0160
     15 C         140.3100  139.3656  163.9072 C.ar    1  UNL1        0.0562
     16 H         138.2165  139.5121  168.9485 H       1  UNL1        0.1702
     17 C         140.2589  141.3925  168.8380 C.3     1  UNL1        0.1116
     18 C         140.5678  142.8510  168.6725 C.3     1  UNL1        0.0249
     19 C         141.0371  143.3784  169.9959 C.3     1  UNL1        0.0189
     20 C         141.0182  142.2460  170.9794 C.3     1  UNL1        0.0689
     21 N         140.5372  141.0186  170.2637 N.3     1  UNL1       -0.2926
     22 H         139.6843  140.6732  170.7038 H       1  UNL1        0.1236
@<TRIPOS>BOND
     1     1     2    2
     2     2     3   ar
     3     3     4   ar
     4    17     4    1
     5    17    18    1
     6    18    19    1
     7    19    20    1
     8    20    21    1
     9     4     5   ar
    10     5     6   ar
    11     6     7   ar
    12     7     8   ar
    13     8     9   ar
    14     9    10   ar
    15    10    11   ar
    16    11    12   ar
    17    12    13    1
    18    12    14   ar
    19    14    15   ar
    20     7     2   ar
    21    15     9   ar
    22    21    17    1
    23    15     6   ar
    24     3    16    1
    25    21    22    1
@<TRIPOS>MOLECULE
*****
 22 25 0 0 0
SMALL
GASTEIGER

@<TRIPOS>ATOM
      1 O         137.9571  139.7010  165.0512 O.2     1  UNL1       -0.2638
      2 C         138.9812  140.7925  165.1502 C.ar    1  UNL1        0.2947
      3 N         139.0458  141.8581  164.0965 N.ar    1  UNL1       -0.3062
      4 C         140.0699  142.9496  164.1955 C.ar    1  UNL1        0.1338
      5 N         141.0294  142.9755  165.3482 N.ar    1  UNL1       -0.2279
      6 C         140.9647  141.9100  166.4019 C.ar    1  UNL1        0.1247
      7 C         139.9406  140.8184  166.3029 C.ar    1  UNL1        0.2184
      8 O         140.1155  139.9103  167.4839 O.2     1  UNL1       -0.4471
      9 C         141.2477  140.4406  168.3128 C.ar    1  UNL1        0.1471
     10 C         141.8685  139.9577  169.5900 C.ar    1  UNL1        0.0384
     11 C         143.0142  140.7107  170.1985 C.ar    1  UNL1        0.0145
     12 C         143.5390  141.9466  169.5298 C.ar    1  UNL1        0.0579
     13 CL        144.6848  142.6996  170.1385 Cl      1  UNL1       -0.0822
     14 C         142.9182  142.4295  168.2526 C.ar    1  UNL1        0.0160
     15 C         141.7726  141.6764  167.6441 C.ar    1  UNL1        0.0562
     16 H         138.4161  141.8410  163.3399 H       1  UNL1        0.1702
     17 C         140.1345  144.0152  163.1417 C.3     1  UNL1        0.1116
     18 C         140.6125  143.8329  161.7317 C.3     1  UNL1        0.0249
     19 C         140.5060  145.1552  161.0315 C.3     1  UNL1        0.0189
     20 C         139.9622  146.1547  162.0088 C.3     1  UNL1        0.0689
     21 N         139.7326  145.4501  163.3130 N.3     1  UNL1       -0.2926
     22 H         138.7463  145.5053  163.5674 H       1  UNL1        0.1236
@<TRIPOS>BOND
     1     1     2    2
     2     2     3   ar
     3     3     4   ar
     4    17     4    1
     5    17    18    1
     6    18    19    1
     7    19    20    1
     8    20    21    1
     9     4     5   ar
    10     5     6   ar
    11     6     7   ar
    12     7     8   ar
    13     8     9   ar
    14     9    10   ar
    15    10    11   ar
    16    11    12   ar
    17    12    13    1
    18    12    14   ar
    19    14    15   ar
    20     7     2   ar
    21    15     9   ar
    22    21    17    1
    23    15     6   ar
    24     3    16    1
    25    21    22    1
@<TRIPOS>MOLECULE
*****
 22 25 0 0 0
SMALL
GASTEIGER

@<TRIPOS>ATOM
      1 O         141.6735  142.1020  171.8436 O.2     1  UNL1       -0.2638
      2 C         142.1110  140.9666  170.9664 C.ar    1  UNL1        0.2947
      3 N         142.9742  139.8755  171.5269 N.ar    1  UNL1       -0.3062
      4 C         143.4117  138.7400  170.6498 C.ar    1  UNL1        0.1338
      5 N         142.9859  138.6957  169.2122 N.ar    1  UNL1       -0.2279
      6 C         142.1226  139.7868  168.6517 C.ar    1  UNL1        0.1247
      7 C         141.6852  140.9223  169.5288 C.ar    1  UNL1        0.2184
      8 O         140.8422  141.8479  168.7027 O.2     1  UNL1       -0.4471
      9 C         140.7586  141.2846  167.3150 C.ar    1  UNL1        0.1471
     10 C         140.0642  141.7670  166.0761 C.ar    1  UNL1        0.0384
     11 C         140.1612  140.9755  164.8056 C.ar    1  UNL1        0.0145
     12 C         140.9525  139.7016  164.7741 C.ar    1  UNL1        0.0579
     13 CL        141.0495  138.9102  163.5035 Cl      1  UNL1       -0.0822
     14 C         141.6470  139.2192  166.0130 C.ar    1  UNL1        0.0160
     15 C         141.5500  140.0107  167.2835 C.ar    1  UNL1        0.0562
     16 H         143.2537  139.9045  172.4705 H       1  UNL1        0.1702
     17 C         144.2750  137.6488  171.2103 C.3     1  UNL1        0.1116
     18 C         143.9943  136.1772  171.1370 C.3     1  UNL1        0.0249
     19 C         145.1164  135.4565  171.8238 C.3     1  UNL1        0.0189
     20 C         146.0905  136.4828  172.3216 C.3     1  UNL1        0.0689
     21 N         145.5705  137.8378  171.9424 N.3     1  UNL1       -0.2926
     22 H         146.2434  138.3103  171.3389 H       1  UNL1        0.1236
@<TRIPOS>BOND
     1     1     2    2
     2     2     3   ar
     3     3     4   ar
     4    17     4    1
     5    17    18    1
     6    18    19    1
     7    19    20    1
     8    20    21    1
     9     4     5   ar
    10     5     6   ar
    11     6     7   ar
    12     7     8   ar
    13     8     9   ar
    14     9    10   ar
    15    10    11   ar
    16    11    12   ar
    17    12    13    1
    18    12    14   ar
    19    14    15   ar
    20     7     2   ar
    21    15     9   ar
    22    21    17    1
    23    15     6   ar
    24     3    16    1
    25    21    22    1
@<TRIPOS>MOLECULE
*****
 22 25 0 0 0
SMALL
GASTEIGER

@<TRIPOS>ATOM
      1 O         140.4097  141.7167  171.9549 O.2     1  UNL1       -0.2638
      2 C         141.5302  142.0244  171.0063 C.ar    1  UNL1        0.2947
      3 N         142.6704  142.8928  171.4489 N.ar    1  UNL1       -0.3062
      4 C         143.7909  143.2005  170.5003 C.ar    1  UNL1        0.1338
      5 N         143.7712  142.6397  169.1091 N.ar    1  UNL1       -0.2279
      6 C         142.6310  141.7713  168.6666 C.ar    1  UNL1        0.1247
      7 C         141.5105  141.4636  169.6152 C.ar    1  UNL1        0.2184
      8 O         140.5275  140.5838  168.9015 O.2     1  UNL1       -0.4471
      9 C         141.0403  140.3477  167.5118 C.ar    1  UNL1        0.1471
     10 C         140.4915  139.5593  166.3598 C.ar    1  UNL1        0.0384
     11 C         141.2428  139.5048  165.0627 C.ar    1  UNL1        0.0145
     12 C         142.5429  140.2387  164.9175 C.ar    1  UNL1        0.0579
     13 CL        143.2941  140.1842  163.6203 Cl      1  UNL1       -0.0822
     14 C         143.0917  141.0272  166.0695 C.ar    1  UNL1        0.0160
     15 C         142.3405  141.0817  167.3666 C.ar    1  UNL1        0.0562
     16 H         142.6833  143.2608  172.3619 H       1  UNL1        0.1702
     17 C         144.9311  144.0689  170.9428 C.3     1  UNL1        0.1116
     18 C         146.3897  143.7657  170.7680 C.3     1  UNL1        0.0249
     19 C         147.1729  144.9024  171.3549 C.3     1  UNL1        0.0189
     20 C         146.1984  145.9080  171.8925 C.3     1  UNL1        0.0689
     21 N         144.8129  145.3929  171.6378 N.3     1  UNL1       -0.2926
     22 H         144.3026  146.0495  171.0472 H       1  UNL1        0.1236
@<TRIPOS>BOND
     1     1     2    2
     2     2     3   ar
     3     3     4   ar
     4    17     4    1
     5    17    18    1
     6    18    19    1
     7    19    20    1
     8    20    21    1
     9     4     5   ar
    10     5     6   ar
    11     6     7   ar
    12     7     8   ar
    13     8     9   ar
    14     9    10   ar
    15    10    11   ar
    16    11    12   ar
    17    12    13    1
    18    12    14   ar
    19    14    15   ar
    20     7     2   ar
    21    15     9   ar
    22    21    17    1
    23    15     6   ar
    24     3    16    1
    25    21    22    1
@<TRIPOS>MOLECULE
*****
 22 25 0 0 0
SMALL
GASTEIGER

@<TRIPOS>ATOM
      1 O         137.5200  137.8864  166.7252 O.2     1  UNL1       -0.2638
      2 C         138.3352  139.1443  166.6703 C.ar    1  UNL1        0.2947
      3 N         139.1186  139.5833  167.8717 N.ar    1  UNL1       -0.3062
      4 C         139.9339  140.8412  167.8168 C.ar    1  UNL1        0.1338
      5 N         139.9657  141.6601  166.5605 N.ar    1  UNL1       -0.2279
      6 C         139.1822  141.2211  165.3590 C.ar    1  UNL1        0.1247
      7 C         138.3670  139.9632  165.4139 C.ar    1  UNL1        0.2184
      8 O         137.7024  139.7831  164.0813 O.2     1  UNL1       -0.4471
      9 C         138.1069  140.9297  163.2028 C.ar    1  UNL1        0.1471
     10 C         137.7605  141.2793  161.7859 C.ar    1  UNL1        0.0384
     11 C         138.3287  142.5176  161.1586 C.ar    1  UNL1        0.0145
     12 C         139.2434  143.4064  161.9483 C.ar    1  UNL1        0.0579
     13 CL        139.8116  144.6448  161.3209 Cl      1  UNL1       -0.0822
     14 C         139.5897  143.0568  163.3652 C.ar    1  UNL1        0.0160
     15 C         139.0215  141.8184  163.9925 C.ar    1  UNL1        0.0562
     16 H         139.0978  139.0458  168.6963 H       1  UNL1        0.1702
     17 C         140.7173  141.2803  169.0183 C.3     1  UNL1        0.1116
     18 C         141.4733  142.5686  169.1552 C.3     1  UNL1        0.0249
     19 C         142.1055  142.5927  170.5153 C.3     1  UNL1        0.0189
     20 C         141.7403  141.3193  171.2188 C.3     1  UNL1        0.0689
     21 N         140.8824  140.5082  170.2937 N.3     1  UNL1       -0.2926
     22 H         139.9703  140.3459  170.7205 H       1  UNL1        0.1236
@<TRIPOS>BOND
     1     1     2    2
     2     2     3   ar
     3     3     4   ar
     4    17     4    1
     5    17    18    1
     6    18    19    1
     7    19    20    1
     8    20    21    1
     9     4     5   ar
    10     5     6   ar
    11     6     7   ar
    12     7     8   ar
    13     8     9   ar
    14     9    10   ar
    15    10    11   ar
    16    11    12   ar
    17    12    13    1
    18    12    14   ar
    19    14    15   ar
    20     7     2   ar
    21    15     9   ar
    22    21    17    1
    23    15     6   ar
    24     3    16    1
    25    21    22    1
@<TRIPOS>MOLECULE
*****
 22 25 0 0 0
SMALL
GASTEIGER

@<TRIPOS>ATOM
      1 O         144.2634  136.9633  166.9905 O.2     1  UNL1       -0.2638
      2 C         143.8263  138.3373  166.5770 C.ar    1  UNL1        0.2947
      3 N         144.0966  138.8227  165.1837 N.ar    1  UNL1       -0.3062
      4 C         143.6594  140.1967  164.7702 C.ar    1  UNL1        0.1338
      5 N         142.9519  141.0853  165.7500 N.ar    1  UNL1       -0.2279
      6 C         142.6816  140.5999  167.1433 C.ar    1  UNL1        0.1247
      7 C         143.1188  139.2259  167.5568 C.ar    1  UNL1        0.2184
      8 O         142.7169  139.0226  168.9876 O.2     1  UNL1       -0.4471
      9 C         142.0314  140.2710  169.4584 C.ar    1  UNL1        0.1471
     10 C         141.4242  140.6461  170.7777 C.ar    1  UNL1        0.0384
     11 C         140.7953  141.9959  170.9571 C.ar    1  UNL1        0.0145
     12 C         140.7734  142.9707  169.8173 C.ar    1  UNL1        0.0579
     13 CL        140.1444  144.3206  169.9968 Cl      1  UNL1       -0.0822
     14 C         141.3806  142.5957  168.4979 C.ar    1  UNL1        0.0160
     15 C         142.0096  141.2458  168.3185 C.ar    1  UNL1        0.0562
     16 H         144.5610  138.2396  164.5407 H       1  UNL1        0.1702
     17 C         143.9298  140.6823  163.3769 C.3     1  UNL1        0.1116
     18 C         143.5723  139.9655  162.1087 C.3     1  UNL1        0.0249
     19 C         144.0266  140.8100  160.9552 C.3     1  UNL1        0.0189
     20 C         144.6648  142.0486  161.5106 C.3     1  UNL1        0.0689
     21 N         144.6050  141.9696  163.0073 N.3     1  UNL1       -0.2926
     22 H         144.0719  142.7580  163.3744 H       1  UNL1        0.1236
@<TRIPOS>BOND
     1     1     2    2
     2     2     3   ar
     3     3     4   ar
     4    17     4    1
     5    17    18    1
     6    18    19    1
     7    19    20    1
     8    20    21    1
     9     4     5   ar
    10     5     6   ar
    11     6     7   ar
    12     7     8   ar
    13     8     9   ar
    14     9    10   ar
    15    10    11   ar
    16    11    12   ar
    17    12    13    1
    18    12    14   ar
    19    14    15   ar
    20     7     2   ar
    21    15     9   ar
    22    21    17    1
    23    15     6   ar
    24     3    16    1
    25    21    22    1
@<TRIPOS>MOLECULE
*****
 22 25 0 0 0
SMALL
GASTEIGER

@<TRIPOS>ATOM
      1 O         145.2837  144.0798  166.1555 O.2     1  UNL1       -0.2638
      2 C         144.2863  143.3094  165.3421 C.ar    1  UNL1        0.2947
      3 N         144.3866  143.2995  163.8455 N.ar    1  UNL1       -0.3062
      4 C         143.3892  142.5291  163.0321 C.ar    1  UNL1        0.1338
      5 N         142.2915  141.7685  163.7153 N.ar    1  UNL1       -0.2279
      6 C         142.1913  141.7784  165.2119 C.ar    1  UNL1        0.1247
      7 C         143.1887  142.5488  166.0253 C.ar    1  UNL1        0.2184
      8 O         142.8391  142.3747  167.4735 O.2     1  UNL1       -0.4471
      9 C         141.6256  141.4967  167.5552 C.ar    1  UNL1        0.1471
     10 C         140.8336  140.9851  168.7218 C.ar    1  UNL1        0.0384
     11 C         139.6411  140.1051  168.4905 C.ar    1  UNL1        0.0145
     12 C         139.2407  139.7365  167.0927 C.ar    1  UNL1        0.0579
     13 CL        138.0482  138.8564  166.8615 Cl      1  UNL1       -0.0822
     14 C         140.0328  140.2481  165.9261 C.ar    1  UNL1        0.0160
     15 C         141.2252  141.1281  166.1574 C.ar    1  UNL1        0.0562
     16 H         145.1070  143.7987  163.3971 H       1  UNL1        0.1702
     17 C         143.4894  142.5192  161.5354 C.3     1  UNL1        0.1116
     18 C         144.0257  141.3984  160.6952 C.3     1  UNL1        0.0249
     19 C         143.9387  141.8148  159.2567 C.3     1  UNL1        0.0189
     20 C         143.3487  143.1930  159.2081 C.3     1  UNL1        0.0689
     21 N         143.0710  143.6284  160.6164 N.3     1  UNL1       -0.2926
     22 H         142.0749  143.8155  160.7308 H       1  UNL1        0.1236
@<TRIPOS>BOND
     1     1     2    2
     2     2     3   ar
     3     3     4   ar
     4    17     4    1
     5    17    18    1
     6    18    19    1
     7    19    20    1
     8    20    21    1
     9     4     5   ar
    10     5     6   ar
    11     6     7   ar
    12     7     8   ar
    13     8     9   ar
    14     9    10   ar
    15    10    11   ar
    16    11    12   ar
    17    12    13    1
    18    12    14   ar
    19    14    15   ar
    20     7     2   ar
    21    15     9   ar
    22    21    17    1
    23    15     6   ar
    24     3    16    1
    25    21    22    1
@<TRIPOS>MOLECULE
*****
 22 25 0 0 0
SMALL
GASTEIGER

@<TRIPOS>ATOM
      1 O         144.4919  137.7287  166.7773 O.2     1  UNL1       -0.2638
      2 C         143.2371  138.5490  166.7295 C.ar    1  UNL1        0.2947
      3 N         142.8478  139.3935  167.9065 N.ar    1  UNL1       -0.3062
      4 C         141.5929  140.2139  167.8586 C.ar    1  UNL1        0.1338
      5 N         140.7273  140.1898  166.6338 N.ar    1  UNL1       -0.2279
      6 C         141.1166  139.3453  165.4568 C.ar    1  UNL1        0.1247
      7 C         142.3715  138.5249  165.5046 C.ar    1  UNL1        0.2184
      8 O         142.4977  137.7945  164.2006 O.2     1  UNL1       -0.4471
      9 C         141.3208  138.1635  163.3468 C.ar    1  UNL1        0.1471
     10 C         140.9162  137.7505  161.9627 C.ar    1  UNL1        0.0384
     11 C         139.6580  138.2960  161.3551 C.ar    1  UNL1        0.0145
     12 C         138.8044  139.2544  162.1314 C.ar    1  UNL1        0.0579
     13 CL        137.5462  139.7999  161.5237 Cl      1  UNL1       -0.0822
     14 C         139.2091  139.6674  163.5155 C.ar    1  UNL1        0.0160
     15 C         140.4673  139.1219  164.1232 C.ar    1  UNL1        0.0562
     16 H         143.4159  139.4093  168.7104 H       1  UNL1        0.1702
     17 C         141.2036  141.0584  169.0356 C.3     1  UNL1        0.1116
     18 C         140.4844  142.3735  168.9777 C.3     1  UNL1        0.0249
     19 C         140.3014  142.8639  170.3834 C.3     1  UNL1        0.0189
     20 C         140.9074  141.8520  171.3100 C.3     1  UNL1        0.0689
     21 N         141.4650  140.7361  170.4770 N.3     1  UNL1       -0.2926
     22 H         141.0080  139.8582  170.7238 H       1  UNL1        0.1236
@<TRIPOS>BOND
     1     1     2    2
     2     2     3   ar
     3     3     4   ar
     4    17     4    1
     5    17    18    1
     6    18    19    1
     7    19    20    1
     8    20    21    1
     9     4     5   ar
    10     5     6   ar
    11     6     7   ar
    12     7     8   ar
    13     8     9   ar
    14     9    10   ar
    15    10    11   ar
    16    11    12   ar
    17    12    13    1
    18    12    14   ar
    19    14    15   ar
    20     7     2   ar
    21    15     9   ar
    22    21    17    1
    23    15     6   ar
    24     3    16    1
    25    21    22    1
