@<TRIPOS>MOLECULE
*****
 39 44 0 0 0
SMALL
GASTEIGER

@<TRIPOS>ATOM
      1 C         139.0639  139.7908  165.0228 C.ar    1  UNL1       -0.0065
      2 C         138.6501  141.2326  165.0287 C.ar    1  UNL1       -0.0032
      3 C         138.4421  141.9584  163.7326 C.ar    1  UNL1       -0.0026
      4 C         138.6480  141.2425  162.4307 C.ar    1  UNL1        0.0019
      5 C         139.0618  139.8007  162.4248 C.ar    1  UNL1       -0.0200
      6 C         139.2698  139.0749  163.7209 C.ar    1  UNL1       -0.0071
      7 C         139.1885  139.3607  160.9964 C.3     1  UNL1        0.0519
      8 C         138.8529  140.5305  160.1195 C.2     1  UNL1        0.0074
      9 C         138.7239  140.9815  158.6947 C.2     1  UNL1        0.0976
     10 N         138.3101  142.4232  158.7006 N.2     1  UNL1       -0.1526
     11 N         138.1834  142.8633  160.1290 N.2     1  UNL1       -0.1678
     12 C         138.5189  141.6935  161.0059 C.3     1  UNL1        0.1672
     13 C         138.9661  140.1387  157.4777 C.ar    1  UNL1        0.0265
     14 C         138.5951  140.4968  156.0691 C.ar    1  UNL1        0.0376
     15 S         139.0216  139.3692  155.1765 S.2     1  UNL1       -0.0780
     16 C         139.6561  138.3142  156.0335 C.ar    1  UNL1        0.0711
     17 C         139.6218  138.7898  157.4557 C.ar    1  UNL1        0.0168
     18 C         140.2251  137.0123  155.5527 C.1     1  UNL1       -0.0543
     19 C         140.7940  135.7103  155.0719 C.1     1  UNL1       -0.0388
     20 C         141.3629  134.4083  154.5911 C.3     1  UNL1        0.2814
     21 O         141.4297  133.2311  155.5182 O.3     1  UNL1       -0.4612
     22 C         142.7343  132.8490  156.1524 C.ar    1  UNL1        0.1400
     23 C         143.5497  131.7301  155.5752 C.ar    1  UNL1        0.0369
     24 C         144.8542  131.3480  156.2094 C.ar    1  UNL1        0.0031
     25 C         145.3433  132.0849  157.4209 C.ar    1  UNL1        0.0002
     26 C         144.5280  133.2038  157.9981 C.ar    1  UNL1        0.0031
     27 C         143.2235  133.5859  157.3639 C.ar    1  UNL1        0.0369
     28 C         139.2719  139.0649  166.3189 C.3     1  UNL1        0.0992
     29 N         142.6739  142.6111  171.1252 N.am    1  UNL1       -0.3132
     30 C         141.2907  142.0307  171.1281 C.2     1  UNL1        0.3009
     31 O         140.4122  142.1919  172.3333 O.2     1  UNL1       -0.2528
     32 N         140.7860  141.2893  169.9258 N.am    1  UNL1       -0.2616
     33 C         141.6645  141.1282  168.7207 C.3     1  UNL1        0.1123
     34 C         141.1598  140.3867  167.5184 C.3     1  UNL1        0.0942
     35 N         139.7766  139.8064  167.5212 N.3     1  UNL1       -0.2660
     36 C         138.8981  139.9675  168.7264 C.3     1  UNL1        0.0942
     37 C         139.4028  140.7089  169.9286 C.3     1  UNL1        0.1123
     38 H         143.0052  143.0977  171.9143 H       1  UNL1        0.1465
     39 H         143.2505  142.5054  170.3343 H       1  UNL1        0.1465
@<TRIPOS>BOND
     1    29    30   am
     2    30    31    2
     3    30    32   am
     4    32    33    1
     5    33    34    1
     6    34    35    1
     7    35    28    1
     8    28     1    1
     9     1     2   ar
    10     2     3   ar
    11     3     4   ar
    12     4     5   ar
    13     5     6   ar
    14     5     7    1
    15     7     8    1
    16     8     9    2
    17     9    13    1
    18    13    14   ar
    19    14    15   ar
    20    15    16   ar
    21    16    18    1
    22    18    19    3
    23    19    20    1
    24    20    21    1
    25    21    22    1
    26    22    23   ar
    27    23    24   ar
    28    24    25   ar
    29    25    26   ar
    30    26    27   ar
    31    16    17   ar
    32     9    10    1
    33    10    11    2
    34    11    12    1
    35    35    36    1
    36    36    37    1
    37    37    32    1
    38     6     1   ar
    39    12     8    1
    40    12     4    1
    41    17    13   ar
    42    27    22   ar
    43    29    38    1
    44    29    39    1
@<TRIPOS>MOLECULE
*****
 39 44 0 0 0
SMALL
GASTEIGER

@<TRIPOS>ATOM
      1 C         143.3023  139.1558  165.2298 C.ar    1  UNL1       -0.0065
      2 C         144.1091  140.3682  164.8706 C.ar    1  UNL1       -0.0032
      3 C         144.2751  140.7595  163.4322 C.ar    1  UNL1       -0.0026
      4 C         143.6343  139.9383  162.3528 C.ar    1  UNL1        0.0019
      5 C         142.8275  138.7259  162.7119 C.ar    1  UNL1       -0.0200
      6 C         142.6615  138.3346  164.1504 C.ar    1  UNL1       -0.0071
      7 C         142.3175  138.1152  161.4404 C.3     1  UNL1        0.0519
      8 C         142.8091  138.9502  160.2953 C.2     1  UNL1        0.0074
      9 C         142.7977  139.0888  158.8018 C.2     1  UNL1        0.0976
     10 N         143.6045  140.3012  158.4426 N.2     1  UNL1       -0.1526
     11 N         144.1145  140.9119  159.7142 N.2     1  UNL1       -0.1678
     12 C         143.6229  140.0769  160.8592 C.3     1  UNL1        0.1672
     13 C         142.1017  138.1753  157.8368 C.ar    1  UNL1        0.0265
     14 C         140.7056  138.3432  157.3143 C.ar    1  UNL1        0.0376
     15 S         140.4207  137.2052  156.3795 S.2     1  UNL1       -0.0780
     16 C         141.6405  136.3340  156.3243 C.ar    1  UNL1        0.0711
     17 C         142.6794  136.9336  157.2250 C.ar    1  UNL1        0.0168
     18 C         141.7945  135.0830  155.5113 C.1     1  UNL1       -0.0543
     19 C         141.9484  133.8318  154.6982 C.1     1  UNL1       -0.0388
     20 C         142.1023  132.5808  153.8851 C.3     1  UNL1        0.2814
     21 O         143.3228  131.7244  154.0501 O.3     1  UNL1       -0.4612
     22 C         143.7687  131.3106  155.4213 C.ar    1  UNL1        0.1400
     23 C         143.2107  130.0672  156.0479 C.ar    1  UNL1        0.0369
     24 C         143.6567  129.6533  157.4190 C.ar    1  UNL1        0.0031
     25 C         144.6606  130.4828  158.1633 C.ar    1  UNL1        0.0002
     26 C         145.2186  131.7261  157.5366 C.ar    1  UNL1        0.0031
     27 C         144.7726  132.1400  156.1656 C.ar    1  UNL1        0.0369
     28 C         143.1363  138.7645  166.6684 C.3     1  UNL1        0.0992
     29 N         140.1024  143.9114  170.0676 N.am    1  UNL1       -0.3132
     30 C         140.6444  142.5993  170.5521 C.2     1  UNL1        0.3009
     31 O         140.5634  142.2460  172.0077 O.2     1  UNL1       -0.2528
     32 N         141.2673  141.6406  169.5812 N.am    1  UNL1       -0.2616
     33 C         141.3483  141.9940  168.1257 C.3     1  UNL1        0.1123
     34 C         141.9713  141.0352  167.1547 C.3     1  UNL1        0.0942
     35 N         142.5133  139.7232  167.6393 N.3     1  UNL1       -0.2660
     36 C         142.4323  139.3699  169.0949 C.3     1  UNL1        0.0942
     37 C         141.8093  140.3286  170.0658 C.3     1  UNL1        0.1123
     38 H         139.6935  144.5406  170.7048 H       1  UNL1        0.1465
     39 H         140.1555  144.1433  169.1122 H       1  UNL1        0.1465
@<TRIPOS>BOND
     1    29    30   am
     2    30    31    2
     3    30    32   am
     4    32    33    1
     5    33    34    1
     6    34    35    1
     7    35    28    1
     8    28     1    1
     9     1     2   ar
    10     2     3   ar
    11     3     4   ar
    12     4     5   ar
    13     5     6   ar
    14     5     7    1
    15     7     8    1
    16     8     9    2
    17     9    13    1
    18    13    14   ar
    19    14    15   ar
    20    15    16   ar
    21    16    18    1
    22    18    19    3
    23    19    20    1
    24    20    21    1
    25    21    22    1
    26    22    23   ar
    27    23    24   ar
    28    24    25   ar
    29    25    26   ar
    30    26    27   ar
    31    16    17   ar
    32     9    10    1
    33    10    11    2
    34    11    12    1
    35    35    36    1
    36    36    37    1
    37    37    32    1
    38     6     1   ar
    39    12     8    1
    40    12     4    1
    41    17    13   ar
    42    27    22   ar
    43    29    38    1
    44    29    39    1
@<TRIPOS>MOLECULE
*****
 39 44 0 0 0
SMALL
GASTEIGER

@<TRIPOS>ATOM
      1 C         142.6686  136.3370  156.0659 C.ar    1  UNL1       -0.0065
      2 C         141.7881  136.7496  154.9238 C.ar    1  UNL1       -0.0032
      3 C         140.6356  137.6792  155.1632 C.ar    1  UNL1       -0.0026
      4 C         140.3635  138.1963  156.5447 C.ar    1  UNL1        0.0019
      5 C         141.2440  137.7837  157.6868 C.ar    1  UNL1       -0.0200
      6 C         142.3966  136.8541  157.4474 C.ar    1  UNL1       -0.0071
      7 C         140.7339  138.4506  158.9298 C.3     1  UNL1        0.0519
      8 C         139.5380  139.2754  158.5559 C.2     1  UNL1        0.0074
      9 C         138.4837  140.1972  159.0930 C.2     1  UNL1        0.0976
     10 N         137.6031  140.6098  157.9509 N.2     1  UNL1       -0.1526
     11 N         138.1133  139.9429  156.7079 N.2     1  UNL1       -0.1678
     12 C         139.3091  139.1182  157.0818 C.3     1  UNL1        0.1672
     13 C         138.3358  140.6305  160.5215 C.ar    1  UNL1        0.0265
     14 C         138.1269  142.0370  160.9991 C.ar    1  UNL1        0.0376
     15 S         138.0329  142.0090  162.4959 S.2     1  UNL1       -0.0780
     16 C         138.1836  140.5853  162.9433 C.ar    1  UNL1        0.0711
     17 C         138.3708  139.7333  161.7230 C.ar    1  UNL1        0.0168
     18 C         138.1526  140.0989  164.3619 C.1     1  UNL1       -0.0543
     19 C         138.1216  139.6124  165.7805 C.1     1  UNL1       -0.0388
     20 C         138.0906  139.1260  167.1991 C.3     1  UNL1        0.2814
     21 O         139.2984  139.2874  168.0739 O.3     1  UNL1       -0.4612
     22 C         139.6835  140.6470  168.5773 C.ar    1  UNL1        0.1400
     23 C         140.3936  141.6088  167.6714 C.ar    1  UNL1        0.0369
     24 C         140.7788  142.9683  168.1748 C.ar    1  UNL1        0.0031
     25 C         140.4538  143.3659  169.5841 C.ar    1  UNL1        0.0002
     26 C         139.7437  142.4042  170.4900 C.ar    1  UNL1        0.0031
     27 C         139.3586  141.0447  169.9867 C.ar    1  UNL1        0.0369
     28 C         143.8213  135.4074  155.8265 C.3     1  UNL1        0.0992
     29 N         144.1687  129.0220  158.3475 N.am    1  UNL1       -0.3132
     30 C         143.3334  129.5973  157.2424 C.2     1  UNL1        0.3009
     31 O         142.3762  128.7201  156.4912 O.2     1  UNL1       -0.2528
     32 N         143.4554  131.0498  156.8884 N.am    1  UNL1       -0.2616
     33 C         144.4126  131.9270  157.6396 C.3     1  UNL1        0.1123
     34 C         144.5346  133.3795  157.2856 C.3     1  UNL1        0.0942
     35 N         143.6993  133.9549  156.1805 N.3     1  UNL1       -0.2660
     36 C         142.7421  133.0776  155.4293 C.3     1  UNL1        0.0942
     37 C         142.6201  131.6251  155.7833 C.3     1  UNL1        0.1123
     38 H         144.0886  128.0686  158.5798 H       1  UNL1        0.1465
     39 H         144.7970  129.5977  158.8405 H       1  UNL1        0.1465
@<TRIPOS>BOND
     1    29    30   am
     2    30    31    2
     3    30    32   am
     4    32    33    1
     5    33    34    1
     6    34    35    1
     7    35    28    1
     8    28     1    1
     9     1     2   ar
    10     2     3   ar
    11     3     4   ar
    12     4     5   ar
    13     5     6   ar
    14     5     7    1
    15     7     8    1
    16     8     9    2
    17     9    13    1
    18    13    14   ar
    19    14    15   ar
    20    15    16   ar
    21    16    18    1
    22    18    19    3
    23    19    20    1
    24    20    21    1
    25    21    22    1
    26    22    23   ar
    27    23    24   ar
    28    24    25   ar
    29    25    26   ar
    30    26    27   ar
    31    16    17   ar
    32     9    10    1
    33    10    11    2
    34    11    12    1
    35    35    36    1
    36    36    37    1
    37    37    32    1
    38     6     1   ar
    39    12     8    1
    40    12     4    1
    41    17    13   ar
    42    27    22   ar
    43    29    38    1
    44    29    39    1
@<TRIPOS>MOLECULE
*****
 39 44 0 0 0
SMALL
GASTEIGER

@<TRIPOS>ATOM
      1 C         142.4777  141.8066  164.5384 C.ar    1  UNL1       -0.0065
      2 C         141.8837  143.1838  164.5194 C.ar    1  UNL1       -0.0032
      3 C         141.0786  143.6369  163.3376 C.ar    1  UNL1       -0.0026
      4 C         140.8676  142.7129  162.1750 C.ar    1  UNL1        0.0019
      5 C         141.4617  141.3357  162.1941 C.ar    1  UNL1       -0.0200
      6 C         142.2667  140.8826  163.3758 C.ar    1  UNL1       -0.0071
      7 C         141.0874  140.6517  160.9128 C.3     1  UNL1        0.0519
      8 C         140.2619  141.6061  160.1017 C.2     1  UNL1        0.0074
      9 C         139.5204  141.7731  158.8085 C.2     1  UNL1        0.0976
     10 N         138.9264  143.1503  158.7895 N.2     1  UNL1       -0.1526
     11 N         139.3007  143.8344  160.0708 N.2     1  UNL1       -0.1678
     12 C         140.1261  142.8800  160.8818 C.3     1  UNL1        0.1672
     13 C         139.3951  140.7437  157.7247 C.ar    1  UNL1        0.0265
     14 C         138.3978  140.7601  156.6043 C.ar    1  UNL1        0.0376
     15 S         138.6313  139.5437  155.7582 S.2     1  UNL1       -0.0780
     16 C         139.7728  138.7756  156.3557 C.ar    1  UNL1        0.0711
     17 C         140.2448  139.5172  157.5711 C.ar    1  UNL1        0.0168
     18 C         140.3424  137.4913  155.8302 C.1     1  UNL1       -0.0543
     19 C         140.9119  136.2070  155.3046 C.1     1  UNL1       -0.0388
     20 C         141.4814  134.9227  154.7790 C.3     1  UNL1        0.2814
     21 O         141.4279  133.6800  155.6173 O.3     1  UNL1       -0.4612
     22 C         142.6942  133.0854  156.1586 C.ar    1  UNL1        0.1400
     23 C         143.3106  131.8942  155.4867 C.ar    1  UNL1        0.0369
     24 C         144.5768  131.2997  156.0280 C.ar    1  UNL1        0.0031
     25 C         145.2267  131.8962  157.2412 C.ar    1  UNL1        0.0002
     26 C         144.6104  133.0873  157.9130 C.ar    1  UNL1        0.0031
     27 C         143.3441  133.6819  157.3717 C.ar    1  UNL1        0.0369
     28 C         143.2828  141.3533  165.7202 C.3     1  UNL1        0.0992
     29 N         139.8903  139.5561  171.4220 N.am    1  UNL1       -0.3132
     30 C         140.6712  140.7938  171.0929 C.2     1  UNL1        0.3009
     31 O         140.7992  141.8916  172.1071 O.2     1  UNL1       -0.2528
     32 N         141.3241  140.9337  169.7497 N.am    1  UNL1       -0.2616
     33 C         141.1961  139.8359  168.7357 C.3     1  UNL1        0.1123
     34 C         141.8490  139.9758  167.3924 C.3     1  UNL1        0.0942
     35 N         142.6299  141.2134  167.0634 N.3     1  UNL1       -0.2660
     36 C         142.7579  142.3113  168.0775 C.3     1  UNL1        0.0942
     37 C         142.1050  142.1714  169.4207 C.3     1  UNL1        0.1123
     38 H         139.4617  139.4643  172.3035 H       1  UNL1        0.1465
     39 H         139.8062  138.8356  170.7564 H       1  UNL1        0.1465
@<TRIPOS>BOND
     1    29    30   am
     2    30    31    2
     3    30    32   am
     4    32    33    1
     5    33    34    1
     6    34    35    1
     7    35    28    1
     8    28     1    1
     9     1     2   ar
    10     2     3   ar
    11     3     4   ar
    12     4     5   ar
    13     5     6   ar
    14     5     7    1
    15     7     8    1
    16     8     9    2
    17     9    13    1
    18    13    14   ar
    19    14    15   ar
    20    15    16   ar
    21    16    18    1
    22    18    19    3
    23    19    20    1
    24    20    21    1
    25    21    22    1
    26    22    23   ar
    27    23    24   ar
    28    24    25   ar
    29    25    26   ar
    30    26    27   ar
    31    16    17   ar
    32     9    10    1
    33    10    11    2
    34    11    12    1
    35    35    36    1
    36    36    37    1
    37    37    32    1
    38     6     1   ar
    39    12     8    1
    40    12     4    1
    41    17    13   ar
    42    27    22   ar
    43    29    38    1
    44    29    39    1
@<TRIPOS>MOLECULE
*****
 39 44 0 0 0
SMALL
GASTEIGER

@<TRIPOS>ATOM
      1 C         138.7070  139.5215  165.1387 C.ar    1  UNL1       -0.0065
      2 C         137.8075  140.6108  164.6345 C.ar    1  UNL1       -0.0032
      3 C         137.7181  140.8887  163.1632 C.ar    1  UNL1       -0.0026
      4 C         138.5282  140.0772  162.1961 C.ar    1  UNL1        0.0019
      5 C         139.4277  138.9880  162.7003 C.ar    1  UNL1       -0.0200
      6 C         139.5172  138.7101  164.1716 C.ar    1  UNL1       -0.0071
      7 C         140.1014  138.3584  161.5171 C.3     1  UNL1        0.0519
      8 C         139.6182  139.0586  160.2817 C.2     1  UNL1        0.0074
      9 C         139.7360  139.1022  158.7870 C.2     1  UNL1        0.0976
     10 N         138.8364  140.1915  158.2828 N.2     1  UNL1       -0.1526
     11 N         138.1628  140.8211  159.4659 N.2     1  UNL1       -0.1678
     12 C         138.6459  140.1209  160.7013 C.3     1  UNL1        0.1672
     13 C         140.6014  138.2127  157.9444 C.ar    1  UNL1        0.0265
     14 C         142.0886  138.0584  158.0651 C.ar    1  UNL1        0.0376
     15 S         142.5378  137.0717  157.0285 S.2     1  UNL1       -0.0780
     16 C         141.3283  136.6162  156.2671 C.ar    1  UNL1        0.0711
     17 C         140.1315  137.3214  156.8332 C.ar    1  UNL1        0.0168
     18 C         141.3174  135.6289  155.1380 C.1     1  UNL1       -0.0543
     19 C         141.3065  134.6415  154.0087 C.1     1  UNL1       -0.0388
     20 C         141.2957  133.6542  152.8796 C.3     1  UNL1        0.2814
     21 O         141.3035  132.1826  153.1699 O.3     1  UNL1       -0.4612
     22 C         142.2644  131.6218  154.1761 C.ar    1  UNL1        0.1400
     23 C         141.9572  131.7181  155.6412 C.ar    1  UNL1        0.0369
     24 C         142.9180  131.1573  156.6473 C.ar    1  UNL1        0.0031
     25 C         144.1859  130.5002  156.1884 C.ar    1  UNL1        0.0002
     26 C         144.4930  130.4039  154.7234 C.ar    1  UNL1        0.0031
     27 C         143.5322  130.9647  153.7172 C.ar    1  UNL1        0.0369
     28 C         138.7965  139.2436  166.6100 C.3     1  UNL1        0.0992
     29 N         142.3831  142.5747  171.4359 N.am    1  UNL1       -0.3132
     30 C         142.7087  142.2739  170.0030 C.2     1  UNL1        0.3009
     31 O         144.0124  142.7306  169.4182 O.2     1  UNL1       -0.2528
     32 N         141.7306  141.5163  169.1547 N.am    1  UNL1       -0.2616
     33 C         140.4270  141.0597  169.7395 C.3     1  UNL1        0.1123
     34 C         139.4489  140.3021  168.8912 C.3     1  UNL1        0.0942
     35 N         139.7745  140.0012  167.4583 N.3     1  UNL1       -0.2660
     36 C         141.0782  140.4579  166.8735 C.3     1  UNL1        0.0942
     37 C         142.0562  141.2155  167.7217 C.3     1  UNL1        0.1123
     38 H         143.0250  143.0720  171.9927 H       1  UNL1        0.1465
     39 H         141.5275  142.2750  171.8197 H       1  UNL1        0.1465
@<TRIPOS>BOND
     1    29    30   am
     2    30    31    2
     3    30    32   am
     4    32    33    1
     5    33    34    1
     6    34    35    1
     7    35    28    1
     8    28     1    1
     9     1     2   ar
    10     2     3   ar
    11     3     4   ar
    12     4     5   ar
    13     5     6   ar
    14     5     7    1
    15     7     8    1
    16     8     9    2
    17     9    13    1
    18    13    14   ar
    19    14    15   ar
    20    15    16   ar
    21    16    18    1
    22    18    19    3
    23    19    20    1
    24    20    21    1
    25    21    22    1
    26    22    23   ar
    27    23    24   ar
    28    24    25   ar
    29    25    26   ar
    30    26    27   ar
    31    16    17   ar
    32     9    10    1
    33    10    11    2
    34    11    12    1
    35    35    36    1
    36    36    37    1
    37    37    32    1
    38     6     1   ar
    39    12     8    1
    40    12     4    1
    41    17    13   ar
    42    27    22   ar
    43    29    38    1
    44    29    39    1
@<TRIPOS>MOLECULE
*****
 39 44 0 0 0
SMALL
GASTEIGER

@<TRIPOS>ATOM
      1 C         143.1199  142.2226  164.5963 C.ar    1  UNL1       -0.0065
      2 C         143.2843  143.7127  164.5454 C.ar    1  UNL1       -0.0032
      3 C         142.7070  144.4922  163.4013 C.ar    1  UNL1       -0.0026
      4 C         141.9652  143.7817  162.3082 C.ar    1  UNL1        0.0019
      5 C         141.8008  142.2916  162.3591 C.ar    1  UNL1       -0.0200
      6 C         142.3782  141.5121  163.5032 C.ar    1  UNL1       -0.0071
      7 C         141.0257  141.8691  161.1464 C.3     1  UNL1        0.0519
      8 C         140.7111  143.0981  160.3460 C.2     1  UNL1        0.0074
      9 C         140.0376  143.5965  159.1018 C.2     1  UNL1        0.0976
     10 N         140.2020  145.0865  159.0509 N.2     1  UNL1       -0.1526
     11 N         140.9771  145.5090  160.2636 N.2     1  UNL1       -0.1678
     12 C         141.2917  144.2802  161.0640 C.3     1  UNL1        0.1672
     13 C         139.3248  142.7529  158.0867 C.ar    1  UNL1        0.0265
     14 C         139.9420  141.6739  157.2471 C.ar    1  UNL1        0.0376
     15 S         138.8684  141.0944  156.3746 S.2     1  UNL1       -0.0780
     16 C         137.5876  141.8151  156.6749 C.ar    1  UNL1        0.0711
     17 C         137.8697  142.8401  157.7331 C.ar    1  UNL1        0.0168
     18 C         136.2581  141.5562  156.0304 C.1     1  UNL1       -0.0543
     19 C         134.9286  141.2974  155.3858 C.1     1  UNL1       -0.0388
     20 C         133.5992  141.0386  154.7412 C.3     1  UNL1        0.2814
     21 O         132.3378  141.4893  155.4163 O.3     1  UNL1       -0.4612
     22 C         131.5548  140.5285  156.2613 C.ar    1  UNL1        0.1400
     23 C         132.2689  139.5978  157.1961 C.ar    1  UNL1        0.0369
     24 C         131.4859  138.6371  158.0410 C.ar    1  UNL1        0.0031
     25 C         129.9890  138.6070  157.9511 C.ar    1  UNL1        0.0002
     26 C         129.2749  139.5377  157.0162 C.ar    1  UNL1        0.0031
     27 C         130.0579  140.4985  156.1713 C.ar    1  UNL1        0.0369
     28 C         143.6973  141.4430  165.7404 C.3     1  UNL1        0.0992
     29 N         139.9038  139.6678  171.1909 N.am    1  UNL1       -0.3132
     30 C         140.6351  140.9389  170.8755 C.2     1  UNL1        0.3009
     31 O         140.6009  142.0840  171.8438 O.2     1  UNL1       -0.2528
     32 N         141.4007  141.0649  169.5917 N.am    1  UNL1       -0.2616
     33 C         141.4349  139.9198  168.6235 C.3     1  UNL1        0.1123
     34 C         142.2004  140.0458  167.3396 C.3     1  UNL1        0.0942
     35 N         142.9317  141.3169  167.0242 N.3     1  UNL1       -0.2660
     36 C         142.8975  142.4620  167.9925 C.3     1  UNL1        0.0942
     37 C         142.1320  142.3360  169.2763 C.3     1  UNL1        0.1123
     38 H         139.4014  139.5851  172.0335 H       1  UNL1        0.1465
     39 H         139.9263  138.9162  170.5554 H       1  UNL1        0.1465
@<TRIPOS>BOND
     1    29    30   am
     2    30    31    2
     3    30    32   am
     4    32    33    1
     5    33    34    1
     6    34    35    1
     7    35    28    1
     8    28     1    1
     9     1     2   ar
    10     2     3   ar
    11     3     4   ar
    12     4     5   ar
    13     5     6   ar
    14     5     7    1
    15     7     8    1
    16     8     9    2
    17     9    13    1
    18    13    14   ar
    19    14    15   ar
    20    15    16   ar
    21    16    18    1
    22    18    19    3
    23    19    20    1
    24    20    21    1
    25    21    22    1
    26    22    23   ar
    27    23    24   ar
    28    24    25   ar
    29    25    26   ar
    30    26    27   ar
    31    16    17   ar
    32     9    10    1
    33    10    11    2
    34    11    12    1
    35    35    36    1
    36    36    37    1
    37    37    32    1
    38     6     1   ar
    39    12     8    1
    40    12     4    1
    41    17    13   ar
    42    27    22   ar
    43    29    38    1
    44    29    39    1
@<TRIPOS>MOLECULE
*****
 39 44 0 0 0
SMALL
GASTEIGER

@<TRIPOS>ATOM
      1 C         142.7278  139.4913  164.3717 C.ar    1  UNL1       -0.0065
      2 C         141.6117  140.4081  163.9675 C.ar    1  UNL1       -0.0032
      3 C         141.1058  140.3967  162.5554 C.ar    1  UNL1       -0.0026
      4 C         141.7161  139.4683  161.5476 C.ar    1  UNL1        0.0019
      5 C         142.8323  138.5514  161.9519 C.ar    1  UNL1       -0.0200
      6 C         143.3381  138.5629  163.3639 C.ar    1  UNL1       -0.0071
      7 C         143.2345  137.7520  160.7481 C.3     1  UNL1        0.0519
      8 C         142.3669  138.1749  159.5998 C.2     1  UNL1        0.0074
      9 C         142.0794  137.9421  158.1461 C.2     1  UNL1        0.0976
     10 N         140.9632  138.8590  157.7419 N.2     1  UNL1       -0.1526
     11 N         140.5610  139.6584  158.9457 N.2     1  UNL1       -0.1678
     12 C         141.4285  139.2356  160.0939 C.3     1  UNL1        0.1672
     13 C         142.7842  136.9642  157.2534 C.ar    1  UNL1        0.0265
     14 C         143.4747  137.2884  155.9618 C.ar    1  UNL1        0.0376
     15 S         144.0395  136.0149  155.4058 S.2     1  UNL1       -0.0780
     16 C         143.6982  134.9037  156.3538 C.ar    1  UNL1        0.0711
     17 C         142.9224  135.4903  157.4957 C.ar    1  UNL1        0.0168
     18 C         144.0678  133.4593  156.1888 C.1     1  UNL1       -0.0543
     19 C         144.4375  132.0149  156.0238 C.1     1  UNL1       -0.0388
     20 C         144.8071  130.5706  155.8589 C.3     1  UNL1        0.2814
     21 O         143.7380  129.5184  155.8565 O.3     1  UNL1       -0.4612
     22 C         143.3493  128.8413  157.1374 C.ar    1  UNL1        0.1400
     23 C         144.0370  129.2089  158.4187 C.ar    1  UNL1        0.0369
     24 C         143.6483  128.5319  159.6995 C.ar    1  UNL1        0.0031
     25 C         142.5718  127.4874  159.6990 C.ar    1  UNL1        0.0002
     26 C         141.8840  127.1199  158.4177 C.ar    1  UNL1        0.0031
     27 C         142.2727  127.7968  157.1368 C.ar    1  UNL1        0.0369
     28 C         143.2338  139.5027  165.7838 C.3     1  UNL1        0.0992
     29 N         139.2738  142.2148  170.7045 N.am    1  UNL1       -0.3132
     30 C         140.4329  142.7920  169.9474 C.2     1  UNL1        0.3009
     31 O         140.8919  144.1916  170.2313 O.2     1  UNL1       -0.2528
     32 N         141.1331  141.9697  168.9065 N.am    1  UNL1       -0.2616
     33 C         140.6742  140.5702  168.6227 C.3     1  UNL1        0.1123
     34 C         141.3744  139.7478  167.5818 C.3     1  UNL1        0.0942
     35 N         142.5336  140.3250  166.8247 N.3     1  UNL1       -0.2660
     36 C         142.9925  141.7246  167.1086 C.3     1  UNL1        0.0942
     37 C         142.2923  142.5469  168.1495 C.3     1  UNL1        0.1123
     38 H         138.8142  142.7545  171.3877 H       1  UNL1        0.1465
     39 H         138.9726  141.2962  170.5182 H       1  UNL1        0.1465
@<TRIPOS>BOND
     1    29    30   am
     2    30    31    2
     3    30    32   am
     4    32    33    1
     5    33    34    1
     6    34    35    1
     7    35    28    1
     8    28     1    1
     9     1     2   ar
    10     2     3   ar
    11     3     4   ar
    12     4     5   ar
    13     5     6   ar
    14     5     7    1
    15     7     8    1
    16     8     9    2
    17     9    13    1
    18    13    14   ar
    19    14    15   ar
    20    15    16   ar
    21    16    18    1
    22    18    19    3
    23    19    20    1
    24    20    21    1
    25    21    22    1
    26    22    23   ar
    27    23    24   ar
    28    24    25   ar
    29    25    26   ar
    30    26    27   ar
    31    16    17   ar
    32     9    10    1
    33    10    11    2
    34    11    12    1
    35    35    36    1
    36    36    37    1
    37    37    32    1
    38     6     1   ar
    39    12     8    1
    40    12     4    1
    41    17    13   ar
    42    27    22   ar
    43    29    38    1
    44    29    39    1
@<TRIPOS>MOLECULE
*****
 39 44 0 0 0
SMALL
GASTEIGER

@<TRIPOS>ATOM
      1 C         142.3037  137.5082  156.2562 C.ar    1  UNL1       -0.0065
      2 C         143.4091  138.3680  155.7188 C.ar    1  UNL1       -0.0032
      3 C         143.8776  139.5610  156.4979 C.ar    1  UNL1       -0.0026
      4 C         143.2408  139.8942  157.8145 C.ar    1  UNL1        0.0019
      5 C         142.1354  139.0345  158.3519 C.ar    1  UNL1       -0.0200
      6 C         141.6669  137.8415  157.5728 C.ar    1  UNL1       -0.0071
      7 C         141.7015  139.6069  159.6688 C.3     1  UNL1        0.0519
      8 C         142.5387  140.8204  159.9452 C.2     1  UNL1        0.0074
      9 C         142.7879  141.9242  160.9299 C.2     1  UNL1        0.0976
     10 N         143.8933  142.7839  160.3925 N.2     1  UNL1       -0.1526
     11 N         144.3272  142.2115  159.0757 N.2     1  UNL1       -0.1678
     12 C         143.4901  140.9981  158.7992 C.3     1  UNL1        0.1672
     13 C         142.0596  142.1317  162.2247 C.ar    1  UNL1        0.0265
     14 C         141.7036  143.4555  162.8337 C.ar    1  UNL1        0.0376
     15 S         140.9834  143.1938  164.1232 S.2     1  UNL1       -0.0780
     16 C         140.8942  141.7083  164.3111 C.ar    1  UNL1        0.0711
     17 C         141.5593  141.0519  163.1378 C.ar    1  UNL1        0.0168
     18 C         140.2525  141.0030  165.4691 C.1     1  UNL1       -0.0543
     19 C         139.6108  140.2977  166.6270 C.1     1  UNL1       -0.0388
     20 C         138.9692  139.5924  167.7850 C.3     1  UNL1        0.2814
     21 O         139.3354  139.9703  169.1896 O.3     1  UNL1       -0.4612
     22 C         140.5144  140.8625  169.4432 C.ar    1  UNL1        0.1400
     23 C         141.8967  140.2823  169.4939 C.ar    1  UNL1        0.0369
     24 C         143.0756  141.1744  169.7474 C.ar    1  UNL1        0.0031
     25 C         142.8722  142.6466  169.9502 C.ar    1  UNL1        0.0002
     26 C         141.4899  143.2268  169.8994 C.ar    1  UNL1        0.0031
     27 C         140.3110  142.3347  169.6459 C.ar    1  UNL1        0.0369
     28 C         141.8351  136.3152  155.4770 C.3     1  UNL1        0.0992
     29 N         144.4817  130.6069  158.2449 N.am    1  UNL1       -0.3132
     30 C         143.4097  130.7916  157.2120 C.2     1  UNL1        0.3009
     31 O         142.7313  129.5953  156.6129 O.2     1  UNL1       -0.2528
     32 N         143.0160  132.1725  156.7783 N.am    1  UNL1       -0.2616
     33 C         143.6943  133.3687  157.3773 C.3     1  UNL1        0.1123
     34 C         143.3007  134.7496  156.9436 C.3     1  UNL1        0.0942
     35 N         142.2287  134.9343  155.9108 N.3     1  UNL1       -0.2660
     36 C         141.5504  133.7380  155.3117 C.3     1  UNL1        0.0942
     37 C         141.9440  132.3571  155.7454 C.3     1  UNL1        0.1123
     38 H         144.7400  129.7006  158.5295 H       1  UNL1        0.1465
     39 H         144.9269  131.3921  158.6381 H       1  UNL1        0.1465
@<TRIPOS>BOND
     1    29    30   am
     2    30    31    2
     3    30    32   am
     4    32    33    1
     5    33    34    1
     6    34    35    1
     7    35    28    1
     8    28     1    1
     9     1     2   ar
    10     2     3   ar
    11     3     4   ar
    12     4     5   ar
    13     5     6   ar
    14     5     7    1
    15     7     8    1
    16     8     9    2
    17     9    13    1
    18    13    14   ar
    19    14    15   ar
    20    15    16   ar
    21    16    18    1
    22    18    19    3
    23    19    20    1
    24    20    21    1
    25    21    22    1
    26    22    23   ar
    27    23    24   ar
    28    24    25   ar
    29    25    26   ar
    30    26    27   ar
    31    16    17   ar
    32     9    10    1
    33    10    11    2
    34    11    12    1
    35    35    36    1
    36    36    37    1
    37    37    32    1
    38     6     1   ar
    39    12     8    1
    40    12     4    1
    41    17    13   ar
    42    27    22   ar
    43    29    38    1
    44    29    39    1
@<TRIPOS>MOLECULE
*****
 39 44 0 0 0
SMALL
GASTEIGER

@<TRIPOS>ATOM
      1 C         137.1130  142.0127  155.6470 C.ar    1  UNL1       -0.0065
      2 C         137.9678  143.0367  154.9610 C.ar    1  UNL1       -0.0032
      3 C         138.9581  143.8387  155.7523 C.ar    1  UNL1       -0.0026
      4 C         139.0936  143.6166  157.2296 C.ar    1  UNL1        0.0019
      5 C         138.2388  142.5926  157.9156 C.ar    1  UNL1       -0.0200
      6 C         137.2485  141.7906  157.1243 C.ar    1  UNL1       -0.0071
      7 C         138.5928  142.5945  159.3732 C.3     1  UNL1        0.0519
      8 C         139.6665  143.6198  159.5880 C.2     1  UNL1        0.0074
      9 C         140.5488  144.2547  160.6217 C.2     1  UNL1        0.0976
     10 N         141.4036  145.2787  159.9357 N.2     1  UNL1       -0.1526
     11 N         141.0495  145.2767  158.4781 N.2     1  UNL1       -0.1678
     12 C         139.9760  144.2515  158.2632 C.3     1  UNL1        0.1672
     13 C         140.5722  143.9236  162.0845 C.ar    1  UNL1        0.0265
     14 C         141.1126  144.7971  163.1777 C.ar    1  UNL1        0.0376
     15 S         140.9337  144.0743  164.4798 S.2     1  UNL1       -0.0780
     16 C         140.2827  142.7540  164.1914 C.ar    1  UNL1        0.0711
     17 C         140.0593  142.6609  162.7110 C.ar    1  UNL1        0.0168
     18 C         139.9190  141.7102  165.2053 C.1     1  UNL1       -0.0543
     19 C         139.5553  140.6662  166.2192 C.1     1  UNL1       -0.0388
     20 C         139.1916  139.6224  167.2331 C.3     1  UNL1        0.2814
     21 O         139.4865  139.8528  168.6857 O.3     1  UNL1       -0.4612
     22 C         140.5698  140.8090  169.0886 C.ar    1  UNL1        0.1400
     23 C         142.0008  140.3596  169.0997 C.ar    1  UNL1        0.0369
     24 C         143.0841  141.3157  169.5026 C.ar    1  UNL1        0.0031
     25 C         142.7363  142.7212  169.8944 C.ar    1  UNL1        0.0002
     26 C         141.3052  143.1706  169.8833 C.ar    1  UNL1        0.0031
     27 C         140.2220  142.2145  169.4804 C.ar    1  UNL1        0.0369
     28 C         136.1226  141.2107  154.8558 C.3     1  UNL1        0.0992
     29 N         130.6180  139.0401  158.3539 N.am    1  UNL1       -0.3132
     30 C         130.7325  139.9643  157.1780 C.2     1  UNL1        0.3009
     31 O         129.4995  140.5769  156.5827 O.2     1  UNL1       -0.2528
     32 N         132.0800  140.2759  156.5975 N.am    1  UNL1       -0.2616
     33 C         133.3130  139.6633  157.1928 C.3     1  UNL1        0.1123
     34 C         134.6606  139.9749  156.6122 C.3     1  UNL1        0.0942
     35 N         134.7751  140.8991  155.4363 N.3     1  UNL1       -0.2660
     36 C         133.5421  141.5117  154.8410 C.3     1  UNL1        0.0942
     37 C         132.1946  141.2001  155.4216 C.3     1  UNL1        0.1123
     38 H         129.7336  138.8355  158.7350 H       1  UNL1        0.1465
     39 H         131.4273  138.6380  158.7447 H       1  UNL1        0.1465
@<TRIPOS>BOND
     1    29    30   am
     2    30    31    2
     3    30    32   am
     4    32    33    1
     5    33    34    1
     6    34    35    1
     7    35    28    1
     8    28     1    1
     9     1     2   ar
    10     2     3   ar
    11     3     4   ar
    12     4     5   ar
    13     5     6   ar
    14     5     7    1
    15     7     8    1
    16     8     9    2
    17     9    13    1
    18    13    14   ar
    19    14    15   ar
    20    15    16   ar
    21    16    18    1
    22    18    19    3
    23    19    20    1
    24    20    21    1
    25    21    22    1
    26    22    23   ar
    27    23    24   ar
    28    24    25   ar
    29    25    26   ar
    30    26    27   ar
    31    16    17   ar
    32     9    10    1
    33    10    11    2
    34    11    12    1
    35    35    36    1
    36    36    37    1
    37    37    32    1
    38     6     1   ar
    39    12     8    1
    40    12     4    1
    41    17    13   ar
    42    27    22   ar
    43    29    38    1
    44    29    39    1
