@<TRIPOS>MOLECULE
*****
 39 43 0 0 0
SMALL
GASTEIGER

@<TRIPOS>ATOM
      1 C         141.1624  145.1234  159.7081 C.3     1  UNL1        0.1322
      2 N         141.0947  144.5835  161.1059 N.ar    1  UNL1       -0.2166
      3 N         142.0765  143.5426  161.5562 N.ar    1  UNL1       -0.1668
      4 C         142.0088  143.0027  162.9540 C.ar    1  UNL1        0.1012
      5 C         140.9593  143.5036  163.9016 C.ar    1  UNL1        0.0240
      6 C         140.8917  142.9636  165.2994 C.ar    1  UNL1        0.0017
      7 C         139.8422  143.4645  166.2468 C.ar    1  UNL1        0.0001
      8 C         138.8604  144.5053  165.7965 C.ar    1  UNL1        0.0002
      9 C         138.9281  145.0453  164.3987 C.ar    1  UNL1        0.0048
     10 C         139.9775  144.5444  163.4513 C.ar    1  UNL1        0.0591
     11 C         140.0452  145.0843  162.0534 C.ar    1  UNL1        0.2763
     12 O         139.0634  146.1252  161.6031 O.2     1  UNL1       -0.2655
     13 C         142.9906  141.9619  163.4044 C.ar    1  UNL1        0.0217
     14 C         144.4463  142.3044  163.5205 C.ar    1  UNL1        0.0040
     15 C         145.4281  141.2636  163.9708 C.ar    1  UNL1        0.0320
     16 C         144.9542  139.8803  164.3050 C.ar    1  UNL1        0.1674
     17 F         145.9360  138.8394  164.7553 F       1  UNL1       -0.2018
     18 C         143.4984  139.5377  164.1889 C.ar    1  UNL1        0.1674
     19 F         143.0245  138.1543  164.5231 F       1  UNL1       -0.2018
     20 C         142.5166  140.5785  163.7386 C.ar    1  UNL1        0.0335
     21 C         140.6885  144.2865  158.5570 C.3     1  UNL1        0.0438
     22 C         139.4493  143.4529  158.6961 C.3     1  UNL1        0.0742
     23 C         139.0987  140.4869  162.0621 C.3     1  UNL1        0.0251
     24 C         140.1823  140.3327  161.0365 C.3     1  UNL1        0.0217
     25 C         140.2991  141.3214  159.9145 C.3     1  UNL1        0.0724
     26 N         139.3324  142.4642  159.8181 N.3     1  UNL1       -0.2726
     27 C         138.2487  142.6184  160.8437 C.3     1  UNL1        0.0724
     28 C         138.1319  141.6298  161.9657 C.3     1  UNL1        0.0217
     29 C         138.6572  138.9913  165.7115 C.ar    1  UNL1        0.0500
     30 C         138.7480  137.5210  165.4282 C.ar    1  UNL1        0.0147
     31 C         138.9557  137.0394  164.0229 C.ar    1  UNL1        0.0009
     32 C         139.0726  138.0281  162.9008 C.ar    1  UNL1       -0.0042
     33 C         138.9818  139.4982  163.1841 C.ar    1  UNL1       -0.0212
     34 C         138.7741  139.9798  164.5895 C.ar    1  UNL1        0.0104
     35 C         139.4074  140.4527  169.3242 C.3     1  UNL1        0.0949
     36 C         139.6151  139.9711  167.9189 C.2     1  UNL1        0.2266
     37 O         140.9883  139.9877  167.3156 O.2     1  UNL1       -0.2748
     38 N         138.4495  139.4729  167.1168 N.am    1  UNL1       -0.2839
     39 H         137.5482  139.4620  167.5128 H       1  UNL1        0.1549
@<TRIPOS>BOND
     1    35    36    1
     2    36    37    2
     3    36    38   am
     4    38    29    1
     5    29    30   ar
     6    30    31   ar
     7    31    32   ar
     8    32    33   ar
     9    33    23    1
    10    23    24    1
    11    24    25    1
    12    25    26    1
    13    26    22    1
    14    22    21    1
    15    21     1    1
    16     1     2    1
    17     2     3   ar
    18     3     4   ar
    19     4    13    1
    20    13    14   ar
    21    14    15   ar
    22    15    16   ar
    23    16    17    1
    24    16    18   ar
    25    18    19    1
    26    18    20   ar
    27     4     5   ar
    28     5     6   ar
    29     6     7   ar
    30     7     8   ar
    31     8     9   ar
    32     9    10   ar
    33    10    11   ar
    34    11    12    2
    35    26    27    1
    36    27    28    1
    37    33    34   ar
    38    34    29   ar
    39    28    23    1
    40    11     2   ar
    41    20    13   ar
    42    10     5   ar
    43    38    39    1
@<TRIPOS>MOLECULE
*****
 39 43 0 0 0
SMALL
GASTEIGER

@<TRIPOS>ATOM
      1 C         141.1296  139.8871  159.5427 C.3     1  UNL1        0.1322
      2 N         141.7162  140.5825  160.7353 N.ar    1  UNL1       -0.2166
      3 N         140.8493  141.4498  161.5992 N.ar    1  UNL1       -0.1668
      4 C         141.4357  142.1453  162.7918 C.ar    1  UNL1        0.1012
      5 C         142.8892  141.9735  163.1206 C.ar    1  UNL1        0.0240
      6 C         143.4757  142.6689  164.3132 C.ar    1  UNL1        0.0017
      7 C         144.9290  142.4971  164.6419 C.ar    1  UNL1        0.0001
      8 C         145.7959  141.6297  163.7781 C.ar    1  UNL1        0.0002
      9 C         145.2095  140.9343  162.5855 C.ar    1  UNL1        0.0048
     10 C         143.7561  141.1061  162.2567 C.ar    1  UNL1        0.0591
     11 C         143.1696  140.4107  161.0641 C.ar    1  UNL1        0.2763
     12 O         144.0365  139.5433  160.2002 O.2     1  UNL1       -0.2655
     13 C         140.5688  143.0126  163.6556 C.ar    1  UNL1        0.0217
     14 C         139.6777  144.0434  163.0286 C.ar    1  UNL1        0.0040
     15 C         138.8108  144.9108  163.8925 C.ar    1  UNL1        0.0320
     16 C         138.8350  144.7473  165.3833 C.ar    1  UNL1        0.1674
     17 F         137.9681  145.6146  166.2472 F       1  UNL1       -0.2018
     18 C         139.7262  143.7164  166.0104 C.ar    1  UNL1        0.1674
     19 F         139.7505  143.5529  167.5012 F       1  UNL1       -0.2018
     20 C         140.5932  142.8491  165.1465 C.ar    1  UNL1        0.0335
     21 C         140.7419  138.4409  159.6333 C.3     1  UNL1        0.0438
     22 C         139.6883  138.0067  160.6087 C.3     1  UNL1        0.0742
     23 C         140.0276  139.1543  164.9466 C.3     1  UNL1        0.0251
     24 C         138.8293  139.5783  164.1502 C.3     1  UNL1        0.0217
     25 C         138.7162  139.1958  162.7042 C.3     1  UNL1        0.0724
     26 N         139.8014  138.3892  162.0547 N.3     1  UNL1       -0.2726
     27 C         140.9997  137.9652  162.8511 C.3     1  UNL1        0.0724
     28 C         141.1128  138.3478  164.2971 C.3     1  UNL1        0.0217
     29 C         141.5796  140.3376  168.4022 C.ar    1  UNL1        0.0500
     30 C         140.3671  140.3019  169.2846 C.ar    1  UNL1        0.0147
     31 C         139.0414  139.8837  168.7210 C.ar    1  UNL1        0.0009
     32 C         138.9283  139.5012  167.2750 C.ar    1  UNL1       -0.0042
     33 C         140.1407  139.5368  166.3926 C.ar    1  UNL1       -0.0212
     34 C         141.4664  139.9550  166.9563 C.ar    1  UNL1        0.0104
     35 C         144.4116  142.5609  170.0716 C.3     1  UNL1        0.0949
     36 C         143.0859  142.1427  169.5080 C.2     1  UNL1        0.2266
     37 O         141.9409  143.1114  169.4865 O.2     1  UNL1       -0.2748
     38 N         142.9053  140.7557  168.9659 N.am    1  UNL1       -0.2839
     39 H         143.6568  140.1199  168.9800 H       1  UNL1        0.1549
@<TRIPOS>BOND
     1    35    36    1
     2    36    37    2
     3    36    38   am
     4    38    29    1
     5    29    30   ar
     6    30    31   ar
     7    31    32   ar
     8    32    33   ar
     9    33    23    1
    10    23    24    1
    11    24    25    1
    12    25    26    1
    13    26    22    1
    14    22    21    1
    15    21     1    1
    16     1     2    1
    17     2     3   ar
    18     3     4   ar
    19     4    13    1
    20    13    14   ar
    21    14    15   ar
    22    15    16   ar
    23    16    17    1
    24    16    18   ar
    25    18    19    1
    26    18    20   ar
    27     4     5   ar
    28     5     6   ar
    29     6     7   ar
    30     7     8   ar
    31     8     9   ar
    32     9    10   ar
    33    10    11   ar
    34    11    12    2
    35    26    27    1
    36    27    28    1
    37    33    34   ar
    38    34    29   ar
    39    28    23    1
    40    11     2   ar
    41    20    13   ar
    42    10     5   ar
    43    38    39    1
@<TRIPOS>MOLECULE
*****
 39 43 0 0 0
SMALL
GASTEIGER

@<TRIPOS>ATOM
      1 C         141.9429  139.5300  159.0967 C.3     1  UNL1        0.1322
      2 N         141.3165  140.3019  160.2200 N.ar    1  UNL1       -0.2166
      3 N         142.1601  141.2019  161.0735 N.ar    1  UNL1       -0.1668
      4 C         141.5338  141.9738  162.1968 C.ar    1  UNL1        0.1012
      5 C         140.0637  141.8457  162.4666 C.ar    1  UNL1        0.0240
      6 C         139.4374  142.6176  163.5899 C.ar    1  UNL1        0.0017
      7 C         137.9675  142.4895  163.8597 C.ar    1  UNL1        0.0001
      8 C         137.1239  141.5895  163.0063 C.ar    1  UNL1        0.0002
      9 C         137.7502  140.8176  161.8830 C.ar    1  UNL1        0.0048
     10 C         139.2202  140.9457  161.6132 C.ar    1  UNL1        0.0591
     11 C         139.8466  140.1738  160.4898 C.ar    1  UNL1        0.2763
     12 O         139.0030  139.2738  159.6364 O.2     1  UNL1       -0.2655
     13 C         142.3773  142.8738  163.0502 C.ar    1  UNL1        0.0217
     14 C         142.8346  144.1996  162.5183 C.ar    1  UNL1        0.0040
     15 C         143.6782  145.0996  163.3717 C.ar    1  UNL1        0.0320
     16 C         144.0645  144.6738  164.7571 C.ar    1  UNL1        0.1674
     17 F         144.9081  145.5737  165.6106 F       1  UNL1       -0.2018
     18 C         143.6072  143.3479  165.2892 C.ar    1  UNL1        0.1674
     19 F         143.9935  142.9220  166.6746 F       1  UNL1       -0.2018
     20 C         142.7636  142.4479  164.4357 C.ar    1  UNL1        0.0335
     21 C         143.0097  138.5161  159.3867 C.3     1  UNL1        0.0438
     22 C         142.8015  137.4966  160.4671 C.3     1  UNL1        0.0742
     23 C         141.2294  138.7677  164.4874 C.3     1  UNL1        0.0251
     24 C         142.6563  139.0459  164.1180 C.3     1  UNL1        0.0217
     25 C         143.1803  138.6222  162.7779 C.3     1  UNL1        0.0724
     26 N         142.2774  137.9203  161.8072 N.3     1  UNL1       -0.2726
     27 C         140.8505  137.6421  162.1767 C.3     1  UNL1        0.0724
     28 C         140.3265  138.0658  163.5168 C.3     1  UNL1        0.0217
     29 C         141.1013  140.2553  168.1644 C.ar    1  UNL1        0.0500
     30 C         139.6572  140.0387  168.5078 C.ar    1  UNL1        0.0147
     31 C         138.7372  139.3984  167.5110 C.ar    1  UNL1        0.0009
     32 C         139.2613  138.9747  166.1708 C.ar    1  UNL1       -0.0042
     33 C         140.7053  139.1913  165.8275 C.ar    1  UNL1       -0.0212
     34 C         141.6253  139.8317  166.8243 C.ar    1  UNL1        0.0104
     35 C         142.8180  143.0002  170.4599 C.3     1  UNL1        0.0949
     36 C         141.8980  142.3599  169.4631 C.2     1  UNL1        0.2266
     37 O         140.8547  143.1836  168.7681 O.2     1  UNL1       -0.2748
     38 N         142.0213  140.8957  169.1612 N.am    1  UNL1       -0.2839
     39 H         142.7060  140.3550  169.6173 H       1  UNL1        0.1549
@<TRIPOS>BOND
     1    35    36    1
     2    36    37    2
     3    36    38   am
     4    38    29    1
     5    29    30   ar
     6    30    31   ar
     7    31    32   ar
     8    32    33   ar
     9    33    23    1
    10    23    24    1
    11    24    25    1
    12    25    26    1
    13    26    22    1
    14    22    21    1
    15    21     1    1
    16     1     2    1
    17     2     3   ar
    18     3     4   ar
    19     4    13    1
    20    13    14   ar
    21    14    15   ar
    22    15    16   ar
    23    16    17    1
    24    16    18   ar
    25    18    19    1
    26    18    20   ar
    27     4     5   ar
    28     5     6   ar
    29     6     7   ar
    30     7     8   ar
    31     8     9   ar
    32     9    10   ar
    33    10    11   ar
    34    11    12    2
    35    26    27    1
    36    27    28    1
    37    33    34   ar
    38    34    29   ar
    39    28    23    1
    40    11     2   ar
    41    20    13   ar
    42    10     5   ar
    43    38    39    1
@<TRIPOS>MOLECULE
*****
 39 43 0 0 0
SMALL
GASTEIGER

@<TRIPOS>ATOM
      1 C         139.1103  137.8783  164.4556 C.3     1  UNL1        0.1322
      2 N         139.1882  139.3430  164.7701 N.ar    1  UNL1       -0.2166
      3 N         140.0086  139.8178  165.9326 N.ar    1  UNL1       -0.1668
      4 C         140.0865  141.2824  166.2471 C.ar    1  UNL1        0.1012
      5 C         139.3440  142.2722  165.3991 C.ar    1  UNL1        0.0240
      6 C         139.4219  143.7367  165.7136 C.ar    1  UNL1        0.0017
      7 C         138.6795  144.7264  164.8656 C.ar    1  UNL1        0.0001
      8 C         137.8591  144.2516  163.7030 C.ar    1  UNL1        0.0002
      9 C         137.7811  142.7870  163.3886 C.ar    1  UNL1        0.0048
     10 C         138.5236  141.7973  164.2366 C.ar    1  UNL1        0.0591
     11 C         138.4457  140.3327  163.9221 C.ar    1  UNL1        0.2763
     12 O         137.6253  139.8578  162.7596 O.2     1  UNL1       -0.2655
     13 C         140.9069  141.7573  167.4097 C.ar    1  UNL1        0.0217
     14 C         142.3868  141.9472  167.2554 C.ar    1  UNL1        0.0040
     15 C         143.2072  142.4220  168.4180 C.ar    1  UNL1        0.0320
     16 C         142.5477  142.7070  169.7347 C.ar    1  UNL1        0.1674
     17 F         143.3681  143.1818  170.8972 F       1  UNL1       -0.2018
     18 C         141.0678  142.5171  169.8890 C.ar    1  UNL1        0.1674
     19 F         140.4083  142.8020  171.2057 F       1  UNL1       -0.2018
     20 C         140.2474  142.0422  168.7264 C.ar    1  UNL1        0.0335
     21 C         140.3684  137.0844  164.2641 C.3     1  UNL1        0.0438
     22 C         141.2473  137.3466  163.0772 C.3     1  UNL1        0.0742
     23 C         141.2216  141.3931  161.1086 C.3     1  UNL1        0.0251
     24 C         142.0067  141.1769  162.3683 C.3     1  UNL1        0.0217
     25 C         142.0152  139.8281  163.0245 C.3     1  UNL1        0.0724
     26 N         141.2387  138.6955  162.4210 N.3     1  UNL1       -0.2726
     27 C         140.4536  138.9117  161.1613 C.3     1  UNL1        0.0724
     28 C         140.4451  140.2605  160.5051 C.3     1  UNL1        0.0217
     29 C         142.0139  144.3263  158.5555 C.ar    1  UNL1        0.0500
     30 C         141.1959  145.4396  159.1399 C.ar    1  UNL1        0.0147
     31 C         140.3864  145.2040  160.3806 C.ar    1  UNL1        0.0009
     32 C         140.3950  143.8552  161.0369 C.ar    1  UNL1       -0.0042
     33 C         141.2130  142.7420  160.4524 C.ar    1  UNL1       -0.0212
     34 C         142.0224  142.9776  159.2117 C.ar    1  UNL1        0.0104
     35 C         143.0650  144.4473  154.7305 C.3     1  UNL1        0.0949
     36 C         142.2556  144.2118  155.9712 C.2     1  UNL1        0.2266
     37 O         140.8785  143.6261  155.8683 O.2     1  UNL1       -0.2748
     38 N         142.8233  144.5619  157.3148 N.am    1  UNL1       -0.2839
     39 H         143.7271  144.9463  157.3823 H       1  UNL1        0.1549
@<TRIPOS>BOND
     1    35    36    1
     2    36    37    2
     3    36    38   am
     4    38    29    1
     5    29    30   ar
     6    30    31   ar
     7    31    32   ar
     8    32    33   ar
     9    33    23    1
    10    23    24    1
    11    24    25    1
    12    25    26    1
    13    26    22    1
    14    22    21    1
    15    21     1    1
    16     1     2    1
    17     2     3   ar
    18     3     4   ar
    19     4    13    1
    20    13    14   ar
    21    14    15   ar
    22    15    16   ar
    23    16    17    1
    24    16    18   ar
    25    18    19    1
    26    18    20   ar
    27     4     5   ar
    28     5     6   ar
    29     6     7   ar
    30     7     8   ar
    31     8     9   ar
    32     9    10   ar
    33    10    11   ar
    34    11    12    2
    35    26    27    1
    36    27    28    1
    37    33    34   ar
    38    34    29   ar
    39    28    23    1
    40    11     2   ar
    41    20    13   ar
    42    10     5   ar
    43    38    39    1
@<TRIPOS>MOLECULE
*****
 39 43 0 0 0
SMALL
GASTEIGER

@<TRIPOS>ATOM
      1 C         140.3841  141.1728  158.4393 C.3     1  UNL1        0.1322
      2 N         140.8287  141.7726  159.7403 N.ar    1  UNL1       -0.2166
      3 N         141.7089  140.9869  160.6665 N.ar    1  UNL1       -0.1668
      4 C         142.1536  141.5866  161.9674 C.ar    1  UNL1        0.1012
      5 C         141.7180  142.9722  162.3423 C.ar    1  UNL1        0.0240
      6 C         142.1626  143.5719  163.6433 C.ar    1  UNL1        0.0017
      7 C         141.7270  144.9574  164.0181 C.ar    1  UNL1        0.0001
      8 C         140.8468  145.7432  163.0920 C.ar    1  UNL1        0.0002
      9 C         140.4021  145.1435  161.7910 C.ar    1  UNL1        0.0048
     10 C         140.8377  143.7580  161.4162 C.ar    1  UNL1        0.0591
     11 C         140.3931  143.1582  160.1151 C.ar    1  UNL1        0.2763
     12 O         139.5129  143.9439  159.1890 O.2     1  UNL1       -0.2655
     13 C         143.0338  140.8008  162.8936 C.ar    1  UNL1        0.0217
     14 C         144.4885  141.1448  163.0175 C.ar    1  UNL1        0.0040
     15 C         145.3688  140.3590  163.9437 C.ar    1  UNL1        0.0320
     16 C         144.7943  139.2292  164.7459 C.ar    1  UNL1        0.1674
     17 F         145.6745  138.4434  165.6720 F       1  UNL1       -0.2018
     18 C         143.3395  138.8852  164.6219 C.ar    1  UNL1        0.1674
     19 F         142.7650  137.7554  165.4241 F       1  UNL1       -0.2018
     20 C         142.4592  139.6710  163.6958 C.ar    1  UNL1        0.0335
     21 C         138.9294  140.8974  158.1987 C.3     1  UNL1        0.0438
     22 C         138.2083  139.8864  159.0400 C.3     1  UNL1        0.0742
     23 C         138.7045  139.9160  163.5124 C.3     1  UNL1        0.0251
     24 C         139.1355  138.7189  162.7180 C.3     1  UNL1        0.0217
     25 C         138.9701  138.7090  161.2272 C.3     1  UNL1        0.0724
     26 N         138.3737  139.8963  160.5309 N.3     1  UNL1       -0.2726
     27 C         137.9428  141.0934  161.3253 C.3     1  UNL1        0.0724
     28 C         138.1082  141.1032  162.8161 C.3     1  UNL1        0.0217
     29 C         139.9923  140.8960  167.1362 C.ar    1  UNL1        0.0500
     30 C         139.2007  139.9457  167.9850 C.ar    1  UNL1        0.0147
     31 C         138.2437  138.9856  167.3429 C.ar    1  UNL1        0.0009
     32 C         138.0783  138.9757  165.8520 C.ar    1  UNL1       -0.0042
     33 C         138.8699  139.9259  165.0033 C.ar    1  UNL1       -0.0212
     34 C         139.8269  140.8860  165.6454 C.ar    1  UNL1        0.0104
     35 C         143.2733  142.3526  168.8282 C.3     1  UNL1        0.0949
     36 C         142.3163  141.3925  168.1862 C.2     1  UNL1        0.2266
     37 O         142.7263  139.9687  167.9521 O.2     1  UNL1       -0.2748
     38 N         140.9493  141.8561  167.7782 N.am    1  UNL1       -0.2839
     39 H         140.6802  142.7906  167.9319 H       1  UNL1        0.1549
@<TRIPOS>BOND
     1    35    36    1
     2    36    37    2
     3    36    38   am
     4    38    29    1
     5    29    30   ar
     6    30    31   ar
     7    31    32   ar
     8    32    33   ar
     9    33    23    1
    10    23    24    1
    11    24    25    1
    12    25    26    1
    13    26    22    1
    14    22    21    1
    15    21     1    1
    16     1     2    1
    17     2     3   ar
    18     3     4   ar
    19     4    13    1
    20    13    14   ar
    21    14    15   ar
    22    15    16   ar
    23    16    17    1
    24    16    18   ar
    25    18    19    1
    26    18    20   ar
    27     4     5   ar
    28     5     6   ar
    29     6     7   ar
    30     7     8   ar
    31     8     9   ar
    32     9    10   ar
    33    10    11   ar
    34    11    12    2
    35    26    27    1
    36    27    28    1
    37    33    34   ar
    38    34    29   ar
    39    28    23    1
    40    11     2   ar
    41    20    13   ar
    42    10     5   ar
    43    38    39    1
@<TRIPOS>MOLECULE
*****
 39 43 0 0 0
SMALL
GASTEIGER

@<TRIPOS>ATOM
      1 C         142.8238  141.8891  158.3819 C.3     1  UNL1        0.1322
      2 N         141.9220  142.2391  159.5285 N.ar    1  UNL1       -0.2166
      3 N         141.3954  141.1582  160.4254 N.ar    1  UNL1       -0.1668
      4 C         140.4937  141.5081  161.5718 C.ar    1  UNL1        0.1012
      5 C         140.1185  142.9389  161.8214 C.ar    1  UNL1        0.0240
      6 C         139.2168  143.2887  162.9679 C.ar    1  UNL1        0.0017
      7 C         138.8417  144.7195  163.2174 C.ar    1  UNL1        0.0001
      8 C         139.3683  145.8003  162.3205 C.ar    1  UNL1        0.0002
      9 C         140.2700  145.4504  161.1740 C.ar    1  UNL1        0.0048
     10 C         140.6451  144.0197  160.9245 C.ar    1  UNL1        0.0591
     11 C         141.5469  143.6698  159.7780 C.ar    1  UNL1        0.2763
     12 O         142.0735  144.7506  158.8811 O.2     1  UNL1       -0.2655
     13 C         139.9670  140.4273  162.4687 C.ar    1  UNL1        0.0217
     14 C         139.1513  139.3072  161.8943 C.ar    1  UNL1        0.0040
     15 C         138.6247  138.2263  162.7913 C.ar    1  UNL1        0.0320
     16 C         138.9138  138.2656  164.2626 C.ar    1  UNL1        0.1674
     17 F         138.3872  137.1848  165.1595 F       1  UNL1       -0.2018
     18 C         139.7295  139.3857  164.8371 C.ar    1  UNL1        0.1674
     19 F         140.0186  139.4250  166.3084 F       1  UNL1       -0.2018
     20 C         140.2562  140.4666  163.9402 C.ar    1  UNL1        0.0335
     21 C         144.3126  141.9173  158.5630 C.3     1  UNL1        0.0438
     22 C         144.9083  142.5674  159.7765 C.3     1  UNL1        0.0742
     23 C         143.8439  141.0682  163.8837 C.3     1  UNL1        0.0251
     24 C         143.9072  142.5429  163.6167 C.3     1  UNL1        0.0217
     25 C         144.2619  143.0426  162.2476 C.3     1  UNL1        0.0724
     26 N         144.5535  142.0676  161.1456 N.3     1  UNL1       -0.2726
     27 C         144.4902  140.5930  161.4126 C.3     1  UNL1        0.0724
     28 C         144.1354  140.0933  162.7817 C.3     1  UNL1        0.0217
     29 C         142.6898  141.0339  167.6807 C.ar    1  UNL1        0.0500
     30 C         142.7795  139.5690  167.9910 C.ar    1  UNL1        0.0147
     31 C         143.2240  138.6039  166.9322 C.ar    1  UNL1        0.0009
     32 C         143.5788  139.1037  165.5631 C.ar    1  UNL1       -0.0042
     33 C         143.4891  140.5685  165.2528 C.ar    1  UNL1       -0.0212
     34 C         143.0446  141.5336  166.3116 C.ar    1  UNL1        0.0104
     35 C         140.4833  143.6687  169.6654 C.3     1  UNL1        0.0949
     36 C         140.9278  142.7037  168.6066 C.2     1  UNL1        0.2266
     37 O         140.0549  142.4433  167.4149 O.2     1  UNL1       -0.2748
     38 N         142.2454  141.9989  168.7395 N.am    1  UNL1       -0.2839
     39 H         142.8183  142.1698  169.5216 H       1  UNL1        0.1549
@<TRIPOS>BOND
     1    35    36    1
     2    36    37    2
     3    36    38   am
     4    38    29    1
     5    29    30   ar
     6    30    31   ar
     7    31    32   ar
     8    32    33   ar
     9    33    23    1
    10    23    24    1
    11    24    25    1
    12    25    26    1
    13    26    22    1
    14    22    21    1
    15    21     1    1
    16     1     2    1
    17     2     3   ar
    18     3     4   ar
    19     4    13    1
    20    13    14   ar
    21    14    15   ar
    22    15    16   ar
    23    16    17    1
    24    16    18   ar
    25    18    19    1
    26    18    20   ar
    27     4     5   ar
    28     5     6   ar
    29     6     7   ar
    30     7     8   ar
    31     8     9   ar
    32     9    10   ar
    33    10    11   ar
    34    11    12    2
    35    26    27    1
    36    27    28    1
    37    33    34   ar
    38    34    29   ar
    39    28    23    1
    40    11     2   ar
    41    20    13   ar
    42    10     5   ar
    43    38    39    1
@<TRIPOS>MOLECULE
*****
 39 43 0 0 0
SMALL
GASTEIGER

@<TRIPOS>ATOM
      1 C         137.8898  143.9935  164.3833 C.3     1  UNL1        0.1322
      2 N         138.3864  142.5913  164.5762 N.ar    1  UNL1       -0.2166
      3 N         139.2149  142.2478  165.7785 N.ar    1  UNL1       -0.1668
      4 C         139.7115  140.8457  165.9714 C.ar    1  UNL1        0.1012
      5 C         139.3797  139.7869  164.9620 C.ar    1  UNL1        0.0240
      6 C         139.8764  138.3847  165.1549 C.ar    1  UNL1        0.0017
      7 C         139.5445  137.3261  164.1454 C.ar    1  UNL1        0.0001
      8 C         138.7161  137.6695  162.9430 C.ar    1  UNL1        0.0002
      9 C         138.2194  139.0717  162.7501 C.ar    1  UNL1        0.0048
     10 C         138.5513  140.1304  163.7596 C.ar    1  UNL1        0.0591
     11 C         138.0546  141.5326  163.5667 C.ar    1  UNL1        0.2763
     12 O         137.2261  141.8761  162.3644 O.2     1  UNL1       -0.2655
     13 C         140.5400  140.5022  167.1738 C.ar    1  UNL1        0.0217
     14 C         142.0350  140.4497  167.0644 C.ar    1  UNL1        0.0040
     15 C         142.8635  140.1062  168.2667 C.ar    1  UNL1        0.0320
     16 C         142.1969  139.8152  169.5785 C.ar    1  UNL1        0.1674
     17 F         143.0253  139.4718  170.7809 F       1  UNL1       -0.2018
     18 C         140.7018  139.8677  169.6881 C.ar    1  UNL1        0.1674
     19 F         140.0352  139.5767  170.9999 F       1  UNL1       -0.2018
     20 C         139.8733  140.2112  168.4857 C.ar    1  UNL1        0.0335
     21 C         138.8668  145.1248  164.2592 C.3     1  UNL1        0.0438
     22 C         139.8804  145.1225  163.1535 C.3     1  UNL1        0.0742
     23 C         141.5539  141.2278  161.6435 C.3     1  UNL1        0.0251
     24 C         142.0066  141.7768  162.9639 C.3     1  UNL1        0.0217
     25 C         141.4487  143.0751  163.4672 C.3     1  UNL1        0.0724
     26 N         140.4382  143.8242  162.6501 N.3     1  UNL1       -0.2726
     27 C         139.9856  143.2751  161.3297 C.3     1  UNL1        0.0724
     28 C         140.5434  141.9769  160.8263 C.3     1  UNL1        0.0217
     29 C         142.4197  138.2067  159.2198 C.ar    1  UNL1        0.0500
     30 C         143.2274  137.3330  160.1333 C.ar    1  UNL1        0.0147
     31 C         143.4772  137.7575  161.5501 C.ar    1  UNL1        0.0009
     32 C         142.9193  139.0558  162.0535 C.ar    1  UNL1       -0.0042
     33 C         142.1117  139.9295  161.1401 C.ar    1  UNL1       -0.0212
     34 C         141.8620  139.5050  159.7232 C.ar    1  UNL1        0.0104
     35 C         142.8011  137.8673  155.2842 C.3     1  UNL1        0.0949
     36 C         143.0509  138.2918  156.7010 C.2     1  UNL1        0.2266
     37 O         144.1816  139.2258  157.0158 O.2     1  UNL1       -0.2748
     38 N         142.1699  137.7822  157.8030 N.am    1  UNL1       -0.2839
     39 H         141.4278  137.1692  157.5964 H       1  UNL1        0.1549
@<TRIPOS>BOND
     1    35    36    1
     2    36    37    2
     3    36    38   am
     4    38    29    1
     5    29    30   ar
     6    30    31   ar
     7    31    32   ar
     8    32    33   ar
     9    33    23    1
    10    23    24    1
    11    24    25    1
    12    25    26    1
    13    26    22    1
    14    22    21    1
    15    21     1    1
    16     1     2    1
    17     2     3   ar
    18     3     4   ar
    19     4    13    1
    20    13    14   ar
    21    14    15   ar
    22    15    16   ar
    23    16    17    1
    24    16    18   ar
    25    18    19    1
    26    18    20   ar
    27     4     5   ar
    28     5     6   ar
    29     6     7   ar
    30     7     8   ar
    31     8     9   ar
    32     9    10   ar
    33    10    11   ar
    34    11    12    2
    35    26    27    1
    36    27    28    1
    37    33    34   ar
    38    34    29   ar
    39    28    23    1
    40    11     2   ar
    41    20    13   ar
    42    10     5   ar
    43    38    39    1
@<TRIPOS>MOLECULE
*****
 39 43 0 0 0
SMALL
GASTEIGER

@<TRIPOS>ATOM
      1 C         144.1599  143.3007  165.2320 C.3     1  UNL1        0.1322
      2 N         142.9675  142.4947  165.6546 N.ar    1  UNL1       -0.2166
      3 N         142.0124  141.9710  164.6233 N.ar    1  UNL1       -0.1668
      4 C         140.8200  141.1651  165.0458 C.ar    1  UNL1        0.1012
      5 C         140.5826  140.8827  166.4998 C.ar    1  UNL1        0.0240
      6 C         139.3902  140.0768  166.9224 C.ar    1  UNL1        0.0017
      7 C         139.1529  139.7945  168.3763 C.ar    1  UNL1        0.0001
      8 C         140.1080  140.3181  169.4077 C.ar    1  UNL1        0.0002
      9 C         141.3004  141.1241  168.9851 C.ar    1  UNL1        0.0048
     10 C         141.5377  141.4064  167.5312 C.ar    1  UNL1        0.0591
     11 C         142.7301  142.2124  167.1085 C.ar    1  UNL1        0.2763
     12 O         143.6852  142.7360  168.1399 O.2     1  UNL1       -0.2655
     13 C         139.8650  140.6414  164.0145 C.ar    1  UNL1        0.0217
     14 C         138.5902  141.3789  163.7297 C.ar    1  UNL1        0.0040
     15 C         137.6352  140.8552  162.6984 C.ar    1  UNL1        0.0320
     16 C         137.9548  139.5941  161.9518 C.ar    1  UNL1        0.1674
     17 F         136.9998  139.0705  160.9205 F       1  UNL1       -0.2018
     18 C         139.2297  138.8566  162.2366 C.ar    1  UNL1        0.1674
     19 F         139.5493  137.5955  161.4900 F       1  UNL1       -0.2018
     20 C         140.1847  139.3803  163.2679 C.ar    1  UNL1        0.0335
     21 C         143.9680  144.6192  164.5431 C.3     1  UNL1        0.0438
     22 C         144.0354  144.7005  163.0469 C.3     1  UNL1        0.0742
     23 C         141.8025  141.7137  160.5283 C.3     1  UNL1        0.0251
     24 C         143.2614  141.5128  160.8131 C.3     1  UNL1        0.0217
     25 C         144.0057  142.5084  161.6527 C.3     1  UNL1        0.0724
     26 N         143.2911  143.7049  162.2074 N.3     1  UNL1       -0.2726
     27 C         141.8322  143.9058  161.9225 C.3     1  UNL1        0.0724
     28 C         141.0879  142.9102  161.0830 C.3     1  UNL1        0.0217
     29 C         138.9268  140.0336  158.3702 C.ar    1  UNL1        0.0500
     30 C         139.5695  138.7269  158.0097 C.ar    1  UNL1        0.0147
     31 C         140.9565  138.4160  158.4888 C.ar    1  UNL1        0.0009
     32 C         141.7008  139.4116  159.3284 C.ar    1  UNL1       -0.0042
     33 C         141.0582  140.7181  159.6888 C.ar    1  UNL1       -0.0212
     34 C         139.6712  141.0291  159.2097 C.ar    1  UNL1        0.0104
     35 C         135.9435  141.2279  156.0414 C.3     1  UNL1        0.0949
     36 C         137.3305  140.9169  156.5205 C.2     1  UNL1        0.2266
     37 O         138.5081  141.1783  155.6290 O.2     1  UNL1       -0.2748
     38 N         137.5398  140.3445  157.8911 N.am    1  UNL1       -0.2839
     39 H         136.7669  140.1730  158.4763 H       1  UNL1        0.1549
@<TRIPOS>BOND
     1    35    36    1
     2    36    37    2
     3    36    38   am
     4    38    29    1
     5    29    30   ar
     6    30    31   ar
     7    31    32   ar
     8    32    33   ar
     9    33    23    1
    10    23    24    1
    11    24    25    1
    12    25    26    1
    13    26    22    1
    14    22    21    1
    15    21     1    1
    16     1     2    1
    17     2     3   ar
    18     3     4   ar
    19     4    13    1
    20    13    14   ar
    21    14    15   ar
    22    15    16   ar
    23    16    17    1
    24    16    18   ar
    25    18    19    1
    26    18    20   ar
    27     4     5   ar
    28     5     6   ar
    29     6     7   ar
    30     7     8   ar
    31     8     9   ar
    32     9    10   ar
    33    10    11   ar
    34    11    12    2
    35    26    27    1
    36    27    28    1
    37    33    34   ar
    38    34    29   ar
    39    28    23    1
    40    11     2   ar
    41    20    13   ar
    42    10     5   ar
    43    38    39    1
@<TRIPOS>MOLECULE
*****
 39 43 0 0 0
SMALL
GASTEIGER

@<TRIPOS>ATOM
      1 C         141.0638  145.2506  159.8708 C.3     1  UNL1        0.1322
      2 N         141.0076  143.7516  159.8755 N.ar    1  UNL1       -0.2166
      3 N         141.6639  142.9798  160.9817 N.ar    1  UNL1       -0.1668
      4 C         141.6077  141.4809  160.9863 C.ar    1  UNL1        0.1012
      5 C         140.8951  140.7537  159.8847 C.ar    1  UNL1        0.0240
      6 C         140.8389  139.2548  159.8893 C.ar    1  UNL1        0.0017
      7 C         140.1264  138.5276  158.7878 C.ar    1  UNL1        0.0001
      8 C         139.4701  139.2993  157.6816 C.ar    1  UNL1        0.0002
      9 C         139.5263  140.7982  157.6769 C.ar    1  UNL1        0.0048
     10 C         140.2388  141.5254  158.7785 C.ar    1  UNL1        0.0591
     11 C         140.2951  143.0244  158.7739 C.ar    1  UNL1        0.2763
     12 O         139.6388  143.7961  157.6677 O.2     1  UNL1       -0.2655
     13 C         142.2640  140.7092  162.0925 C.ar    1  UNL1        0.0217
     14 C         143.7602  140.6458  162.1776 C.ar    1  UNL1        0.0040
     15 C         144.4165  139.8740  163.2838 C.ar    1  UNL1        0.0320
     16 C         143.5766  139.1657  164.3049 C.ar    1  UNL1        0.1674
     17 F         144.2329  138.3940  165.4111 F       1  UNL1       -0.2018
     18 C         142.0803  139.2291  164.2199 C.ar    1  UNL1        0.1674
     19 F         141.2404  138.5208  165.2411 F       1  UNL1       -0.2018
     20 C         141.4240  140.0009  163.1137 C.ar    1  UNL1        0.0335
     21 C         139.9501  146.0448  160.4863 C.3     1  UNL1        0.0438
     22 C         139.8988  146.2370  161.9730 C.3     1  UNL1        0.0742
     23 C         139.3605  142.6857  164.6837 C.3     1  UNL1        0.0251
     24 C         138.3066  143.0227  163.6710 C.3     1  UNL1        0.0217
     25 C         138.4860  144.2064  162.7675 C.3     1  UNL1        0.0724
     26 N         139.7194  145.0532  162.8766 N.3     1  UNL1       -0.2726
     27 C         140.7733  144.7162  163.8894 C.3     1  UNL1        0.0724
     28 C         140.5938  143.5324  164.7929 C.3     1  UNL1        0.0217
     29 C         139.7433  140.2493  167.7930 C.ar    1  UNL1        0.0500
     30 C         138.8223  139.1343  167.3946 C.ar    1  UNL1        0.0147
     31 C         138.0808  139.2031  166.0925 C.ar    1  UNL1        0.0009
     32 C         138.2602  140.3869  165.1889 C.ar    1  UNL1       -0.0042
     33 C         139.1811  141.5018  165.5873 C.ar    1  UNL1       -0.0212
     34 C         139.9226  141.4330  166.8894 C.ar    1  UNL1        0.0104
     35 C         142.6812  139.7468  170.4133 C.3     1  UNL1        0.0949
     36 C         141.9397  139.8156  169.1113 C.2     1  UNL1        0.2266
     37 O         142.6530  139.5196  167.8254 O.2     1  UNL1       -0.2748
     38 N         140.4848  140.1805  169.0951 N.am    1  UNL1       -0.2839
     39 H         140.0166  140.3748  169.9391 H       1  UNL1        0.1549
@<TRIPOS>BOND
     1    35    36    1
     2    36    37    2
     3    36    38   am
     4    38    29    1
     5    29    30   ar
     6    30    31   ar
     7    31    32   ar
     8    32    33   ar
     9    33    23    1
    10    23    24    1
    11    24    25    1
    12    25    26    1
    13    26    22    1
    14    22    21    1
    15    21     1    1
    16     1     2    1
    17     2     3   ar
    18     3     4   ar
    19     4    13    1
    20    13    14   ar
    21    14    15   ar
    22    15    16   ar
    23    16    17    1
    24    16    18   ar
    25    18    19    1
    26    18    20   ar
    27     4     5   ar
    28     5     6   ar
    29     6     7   ar
    30     7     8   ar
    31     8     9   ar
    32     9    10   ar
    33    10    11   ar
    34    11    12    2
    35    26    27    1
    36    27    28    1
    37    33    34   ar
    38    34    29   ar
    39    28    23    1
    40    11     2   ar
    41    20    13   ar
    42    10     5   ar
    43    38    39    1
