@<TRIPOS>MOLECULE
*****
 34 37 0 0 0
SMALL
GASTEIGER

@<TRIPOS>ATOM
      1 C         143.1019  138.4556  159.6340 C.ar    1  UNL1        0.1233
      2 C         142.3296  137.4760  158.8011 C.ar    1  UNL1        0.1179
      3 N         142.6697  137.7225  157.3611 N.ar    1  UNL1       -0.2257
      4 N         143.6522  138.8545  157.3041 N.ar    1  UNL1       -0.0635
      5 N         143.9193  139.3076  158.7088 N.ar    1  UNL1       -0.1287
      6 C         144.0547  139.4934  163.3442 C.ar    1  UNL1        0.1547
      7 C         144.0930  139.3847  161.8487 C.ar    1  UNL1        0.0400
      8 C         143.0635  138.5642  161.1296 C.ar    1  UNL1        0.0241
      9 C         141.9958  137.8522  161.9062 C.ar    1  UNL1        0.0033
     10 C         141.9575  137.9609  163.4017 C.ar    1  UNL1        0.0207
     11 C         142.9869  138.7814  164.1207 C.ar    1  UNL1        0.0994
     12 N         142.9486  138.8900  165.6163 N.ar    1  UNL1       -0.2839
     13 C         143.7814  138.0972  166.5796 C.ar    1  UNL1        0.1826
     14 N         143.4182  138.5277  167.9698 N.ar    1  UNL1       -0.2280
     15 C         142.3609  139.5867  167.8658 C.ar    1  UNL1        0.0786
     16 C         141.7084  140.2970  169.0146 C.3     1  UNL1        0.0538
     17 C         142.0707  139.8106  166.4113 C.ar    1  UNL1        0.0963
     18 C         145.6706  141.5269  163.4039 C.3     1  UNL1        0.2525
     19 O         145.0841  140.3139  164.0632 O.3     1  UNL1       -0.4700
     20 C         142.1232  136.9693  156.1846 C.3     1  UNL1        0.1556
     21 C         142.4339  135.5114  156.0174 C.ar    1  UNL1        0.0021
     22 C         141.6698  134.6912  155.0205 C.ar    1  UNL1        0.0015
     23 C         141.9805  133.2333  154.8533 C.ar    1  UNL1        0.0711
     24 C         143.0552  132.5955  155.6829 C.ar    1  UNL1        0.0077
     25 C         143.8192  133.4156  156.6798 C.ar    1  UNL1        0.0711
     26 C         143.5085  134.8735  156.8470 C.ar    1  UNL1        0.0015
     27 C         141.2165  132.4132  153.8565 C.3     1  UNL1        0.4186
     28 F         140.4525  131.5931  152.8597 F       1  UNL1       -0.1659
     29 F         140.3761  131.8499  154.9640 F       1  UNL1       -0.1659
     30 F         142.0568  132.9765  152.7490 F       1  UNL1       -0.1659
     31 C         144.8939  132.7778  157.5094 C.3     1  UNL1        0.4186
     32 F         145.9686  132.1400  158.3390 F       1  UNL1       -0.1659
     33 F         145.3067  131.9435  156.3332 F       1  UNL1       -0.1659
     34 F         144.4810  133.6121  158.6856 F       1  UNL1       -0.1659
@<TRIPOS>BOND
     1    18    19    1
     2    19     6    1
     3     6     7   ar
     4     7     8   ar
     5     8     1    1
     6     1     2   ar
     7     2     3   ar
     8     3    20    1
     9    20    21    1
    10    21    22   ar
    11    22    23   ar
    12    23    27    1
    13    27    28    1
    14    27    29    1
    15    27    30    1
    16    23    24   ar
    17    24    25   ar
    18    25    31    1
    19    31    32    1
    20    31    33    1
    21    31    34    1
    22    25    26   ar
    23     3     4   ar
    24     4     5   ar
    25     8     9   ar
    26     9    10   ar
    27    10    11   ar
    28    11    12    1
    29    12    13   ar
    30    13    14   ar
    31    14    15   ar
    32    15    16    1
    33    15    17   ar
    34    11     6   ar
    35    17    12   ar
    36     5     1   ar
    37    26    21   ar
@<TRIPOS>MOLECULE
*****
 34 37 0 0 0
SMALL
GASTEIGER

@<TRIPOS>ATOM
      1 C         140.3517  143.3062  160.9104 C.ar    1  UNL1        0.1233
      2 C         139.7852  142.4071  161.9690 C.ar    1  UNL1        0.1179
      3 N         138.6972  143.1562  162.6797 N.ar    1  UNL1       -0.2257
      4 N         138.5912  144.5182  162.0603 N.ar    1  UNL1       -0.0635
      5 N         139.6137  144.6109  160.9668 N.ar    1  UNL1       -0.1287
      6 C         143.2712  141.2945  159.1273 C.ar    1  UNL1        0.1547
      7 C         142.1617  141.6396  160.0758 C.ar    1  UNL1        0.0400
      8 C         141.4613  142.9611  159.9617 C.ar    1  UNL1        0.0241
      9 C         141.8704  143.9376  158.8992 C.ar    1  UNL1        0.0033
     10 C         142.9800  143.5925  157.9507 C.ar    1  UNL1        0.0207
     11 C         143.6804  142.2709  158.0647 C.ar    1  UNL1        0.0994
     12 N         144.7900  141.9259  157.1161 N.ar    1  UNL1       -0.2839
     13 C         144.6744  141.0462  155.9066 C.ar    1  UNL1        0.1826
     14 N         146.0230  140.9766  155.2535 N.ar    1  UNL1       -0.2280
     15 C         146.9720  141.8133  156.0593 C.ar    1  UNL1        0.0786
     16 C         148.4275  142.0259  155.7656 C.3     1  UNL1        0.0538
     17 C         146.2100  142.4000  157.2105 C.ar    1  UNL1        0.0963
     18 C         144.0478  139.2765  160.5676 C.3     1  UNL1        0.2525
     19 O         143.9716  139.9730  159.2413 O.3     1  UNL1       -0.4700
     20 C         137.8618  142.6348  163.8113 C.3     1  UNL1        0.1556
     21 C         138.4888  141.7860  164.8773 C.ar    1  UNL1        0.0021
     22 C         139.5982  142.3402  165.7213 C.ar    1  UNL1        0.0015
     23 C         140.2252  141.4914  166.7874 C.ar    1  UNL1        0.0711
     24 C         139.7428  140.0885  167.0095 C.ar    1  UNL1        0.0077
     25 C         138.6335  139.5344  166.1655 C.ar    1  UNL1        0.0711
     26 C         138.0065  140.3832  165.0994 C.ar    1  UNL1        0.0015
     27 C         141.3346  142.0455  167.6313 C.3     1  UNL1        0.4186
     28 F         142.4439  142.5996  168.4753 F       1  UNL1       -0.1659
     29 F         142.2818  141.0403  167.0462 F       1  UNL1       -0.1659
     30 F         140.3874  143.0507  168.2164 F       1  UNL1       -0.1659
     31 C         138.1511  138.1316  166.3876 C.3     1  UNL1        0.4186
     32 F         137.6687  136.7287  166.6097 F       1  UNL1       -0.1659
     33 F         139.1219  137.6347  165.3577 F       1  UNL1       -0.1659
     34 F         137.1803  138.6284  167.4175 F       1  UNL1       -0.1659
@<TRIPOS>BOND
     1    18    19    1
     2    19     6    1
     3     6     7   ar
     4     7     8   ar
     5     8     1    1
     6     1     2   ar
     7     2     3   ar
     8     3    20    1
     9    20    21    1
    10    21    22   ar
    11    22    23   ar
    12    23    27    1
    13    27    28    1
    14    27    29    1
    15    27    30    1
    16    23    24   ar
    17    24    25   ar
    18    25    31    1
    19    31    32    1
    20    31    33    1
    21    31    34    1
    22    25    26   ar
    23     3     4   ar
    24     4     5   ar
    25     8     9   ar
    26     9    10   ar
    27    10    11   ar
    28    11    12    1
    29    12    13   ar
    30    13    14   ar
    31    14    15   ar
    32    15    16    1
    33    15    17   ar
    34    11     6   ar
    35    17    12   ar
    36     5     1   ar
    37    26    21   ar
@<TRIPOS>MOLECULE
*****
 34 37 0 0 0
SMALL
GASTEIGER

@<TRIPOS>ATOM
      1 C         140.3764  143.5165  160.8376 C.ar    1  UNL1        0.1233
      2 C         139.8424  142.6663  161.9520 C.ar    1  UNL1        0.1179
      3 N         138.7563  143.4363  162.6430 N.ar    1  UNL1       -0.2257
      4 N         138.6191  144.7625  161.9555 N.ar    1  UNL1       -0.0635
      5 N         139.6204  144.8120  160.8398 N.ar    1  UNL1       -0.1287
      6 C         143.2489  141.4270  159.0675 C.ar    1  UNL1        0.1547
      7 C         142.1515  141.8058  160.0174 C.ar    1  UNL1        0.0400
      8 C         141.4739  143.1377  159.8877 C.ar    1  UNL1        0.0241
      9 C         141.8936  144.0908  158.8082 C.ar    1  UNL1        0.0033
     10 C         142.9910  143.7120  157.8584 C.ar    1  UNL1        0.0207
     11 C         143.6686  142.3801  157.9881 C.ar    1  UNL1        0.0994
     12 N         144.7661  142.0013  157.0382 N.ar    1  UNL1       -0.2839
     13 C         144.6183  141.1418  155.8178 C.ar    1  UNL1        0.1826
     14 N         145.9648  141.0248  155.1673 N.ar    1  UNL1       -0.2280
     15 C         146.9449  141.8122  155.9857 C.ar    1  UNL1        0.0786
     16 C         148.4088  141.9686  155.6982 C.3     1  UNL1        0.0538
     17 C         146.2040  142.4157  157.1419 C.ar    1  UNL1        0.0963
     18 C         143.6705  139.2373  160.4008 C.3     1  UNL1        0.2525
     19 O         143.9266  140.0951  159.1972 O.3     1  UNL1       -0.4700
     20 C         137.9492  142.9632  163.8155 C.3     1  UNL1        0.1556
     21 C         138.5759  142.0731  164.8473 C.ar    1  UNL1        0.0021
     22 C         138.1469  140.6402  164.9621 C.ar    1  UNL1        0.0015
     23 C         138.7737  139.7500  165.9939 C.ar    1  UNL1        0.0711
     24 C         139.8294  140.2926  166.9110 C.ar    1  UNL1        0.0077
     25 C         140.2584  141.7254  166.7962 C.ar    1  UNL1        0.0711
     26 C         139.6316  142.6155  165.7644 C.ar    1  UNL1        0.0015
     27 C         138.3447  138.3173  166.1087 C.3     1  UNL1        0.4186
     28 F         137.9157  136.8846  166.2235 F       1  UNL1       -0.1659
     29 F         139.4302  137.9158  165.1545 F       1  UNL1       -0.1659
     30 F         137.2592  138.7188  167.0629 F       1  UNL1       -0.1659
     31 C         141.3142  142.2679  167.7133 C.3     1  UNL1        0.4186
     32 F         142.3699  142.8105  168.6304 F       1  UNL1       -0.1659
     33 F         142.3170  141.3256  167.1163 F       1  UNL1       -0.1659
     34 F         140.3113  143.2102  168.3103 F       1  UNL1       -0.1659
@<TRIPOS>BOND
     1    18    19    1
     2    19     6    1
     3     6     7   ar
     4     7     8   ar
     5     8     1    1
     6     1     2   ar
     7     2     3   ar
     8     3    20    1
     9    20    21    1
    10    21    22   ar
    11    22    23   ar
    12    23    27    1
    13    27    28    1
    14    27    29    1
    15    27    30    1
    16    23    24   ar
    17    24    25   ar
    18    25    31    1
    19    31    32    1
    20    31    33    1
    21    31    34    1
    22    25    26   ar
    23     3     4   ar
    24     4     5   ar
    25     8     9   ar
    26     9    10   ar
    27    10    11   ar
    28    11    12    1
    29    12    13   ar
    30    13    14   ar
    31    14    15   ar
    32    15    16    1
    33    15    17   ar
    34    11     6   ar
    35    17    12   ar
    36     5     1   ar
    37    26    21   ar
@<TRIPOS>MOLECULE
*****
 34 37 0 0 0
SMALL
GASTEIGER

@<TRIPOS>ATOM
      1 C         139.5892  141.0340  160.2733 C.ar    1  UNL1        0.1233
      2 C         139.3340  140.9518  161.7491 C.ar    1  UNL1        0.1179
      3 N         138.5021  142.1364  162.1425 N.ar    1  UNL1       -0.2257
      4 N         138.2432  142.9508  160.9097 N.ar    1  UNL1       -0.0635
      5 N         138.9151  142.2695  159.7545 N.ar    1  UNL1       -0.1287
      6 C         140.4755  138.1936  157.6472 C.ar    1  UNL1        0.1547
      7 C         139.6851  139.1746  158.4613 C.ar    1  UNL1        0.0400
      8 C         140.3797  140.0530  159.4592 C.ar    1  UNL1        0.0241
      9 C         141.8649  139.9505  159.6429 C.ar    1  UNL1        0.0033
     10 C         142.6553  138.9696  158.8288 C.ar    1  UNL1        0.0207
     11 C         141.9607  138.0911  157.8310 C.ar    1  UNL1        0.0994
     12 N         142.7512  137.1101  157.0168 N.ar    1  UNL1       -0.2839
     13 C         143.6487  137.4435  155.8621 C.ar    1  UNL1        0.1826
     14 N         144.2352  136.1629  155.3462 N.ar    1  UNL1       -0.2280
     15 C         143.7002  135.0381  156.1820 C.ar    1  UNL1        0.0786
     16 C         144.0252  133.5834  156.0147 C.3     1  UNL1        0.0538
     17 C         142.7830  135.6235  157.2145 C.ar    1  UNL1        0.0963
     18 C         139.6993  137.7328  155.2110 C.3     1  UNL1        0.2525
     19 O         139.7809  137.3151  156.6493 O.3     1  UNL1       -0.4700
     20 C         138.0147  142.4513  163.5257 C.3     1  UNL1        0.1556
     21 C         138.5512  141.6899  164.7014 C.ar    1  UNL1        0.0021
     22 C         138.0234  140.3205  165.0123 C.ar    1  UNL1        0.0015
     23 C         138.5600  139.5591  166.1881 C.ar    1  UNL1        0.0711
     24 C         139.6242  140.1670  167.0529 C.ar    1  UNL1        0.0077
     25 C         140.1519  141.5362  166.7420 C.ar    1  UNL1        0.0711
     26 C         139.6154  142.2976  165.5663 C.ar    1  UNL1        0.0015
     27 C         138.0322  138.1899  166.4990 C.3     1  UNL1        0.4186
     28 F         137.5045  136.8207  166.8098 F       1  UNL1       -0.1659
     29 F         138.7310  137.6457  165.2884 F       1  UNL1       -0.1659
     30 F         137.3335  138.7341  167.7095 F       1  UNL1       -0.1659
     31 C         141.2162  142.1440  167.6069 C.3     1  UNL1        0.4186
     32 F         142.2804  142.7519  168.4717 F       1  UNL1       -0.1659
     33 F         140.2404  143.1810  168.0788 F       1  UNL1       -0.1659
     34 F         142.1919  141.1071  167.1349 F       1  UNL1       -0.1659
@<TRIPOS>BOND
     1    18    19    1
     2    19     6    1
     3     6     7   ar
     4     7     8   ar
     5     8     1    1
     6     1     2   ar
     7     2     3   ar
     8     3    20    1
     9    20    21    1
    10    21    22   ar
    11    22    23   ar
    12    23    27    1
    13    27    28    1
    14    27    29    1
    15    27    30    1
    16    23    24   ar
    17    24    25   ar
    18    25    31    1
    19    31    32    1
    20    31    33    1
    21    31    34    1
    22    25    26   ar
    23     3     4   ar
    24     4     5   ar
    25     8     9   ar
    26     9    10   ar
    27    10    11   ar
    28    11    12    1
    29    12    13   ar
    30    13    14   ar
    31    14    15   ar
    32    15    16    1
    33    15    17   ar
    34    11     6   ar
    35    17    12   ar
    36     5     1   ar
    37    26    21   ar
@<TRIPOS>MOLECULE
*****
 34 37 0 0 0
SMALL
GASTEIGER

@<TRIPOS>ATOM
      1 C         143.4113  141.8044  162.1732 C.ar    1  UNL1        0.1233
      2 C         142.7088  141.2120  163.3587 C.ar    1  UNL1        0.1179
      3 N         143.7377  140.5409  164.2195 N.ar    1  UNL1       -0.2257
      4 N         145.0762  140.7186  163.5660 N.ar    1  UNL1       -0.0635
      5 N         144.8744  141.4995  162.3013 N.ar    1  UNL1       -0.1287
      6 C         140.9954  144.2828  160.2312 C.ar    1  UNL1        0.1547
      7 C         141.6424  143.5195  161.3486 C.ar    1  UNL1        0.0400
      8 C         142.7643  142.5678  161.0557 C.ar    1  UNL1        0.0241
      9 C         143.2391  142.3795  159.6454 C.ar    1  UNL1        0.0033
     10 C         142.5921  143.1428  158.5280 C.ar    1  UNL1        0.0207
     11 C         141.4703  144.0945  158.8209 C.ar    1  UNL1        0.0994
     12 N         140.8233  144.8579  157.7034 N.ar    1  UNL1       -0.2839
     13 C         141.3621  146.0988  157.0556 C.ar    1  UNL1        0.1826
     14 N         140.3957  146.5222  155.9893 N.ar    1  UNL1       -0.2280
     15 C         139.2595  145.5428  155.9782 C.ar    1  UNL1        0.0786
     16 C         138.0683  145.5848  155.0676 C.3     1  UNL1        0.0538
     17 C         139.5238  144.5143  157.0375 C.ar    1  UNL1        0.0963
     18 C         139.8455  145.9837  161.8233 C.3     1  UNL1        0.2525
     19 O         139.8736  145.2345  160.5241 O.3     1  UNL1       -0.4700
     20 C         143.4744  139.8189  165.5077 C.3     1  UNL1        0.1556
     21 C         142.3220  140.2294  166.3756 C.ar    1  UNL1        0.0021
     22 C         141.0115  139.5064  166.2737 C.ar    1  UNL1        0.0015
     23 C         139.8591  139.9169  167.1416 C.ar    1  UNL1        0.0711
     24 C         140.0170  141.0503  168.1114 C.ar    1  UNL1        0.0077
     25 C         141.3273  141.7732  168.2133 C.ar    1  UNL1        0.0711
     26 C         142.4798  141.3627  167.3454 C.ar    1  UNL1        0.0015
     27 C         138.5487  139.1940  167.0397 C.3     1  UNL1        0.4186
     28 F         137.2384  138.4711  166.9378 F       1  UNL1       -0.1659
     29 F         138.2538  139.5267  168.4723 F       1  UNL1       -0.1659
     30 F         138.8436  138.8614  165.6071 F       1  UNL1       -0.1659
     31 C         141.4852  142.9066  169.1831 C.3     1  UNL1        0.4186
     32 F         141.6431  144.0400  170.1529 F       1  UNL1       -0.1659
     33 F         139.9952  142.9802  169.3397 F       1  UNL1       -0.1659
     34 F         142.9752  142.8331  169.0265 F       1  UNL1       -0.1659
@<TRIPOS>BOND
     1    18    19    1
     2    19     6    1
     3     6     7   ar
     4     7     8   ar
     5     8     1    1
     6     1     2   ar
     7     2     3   ar
     8     3    20    1
     9    20    21    1
    10    21    22   ar
    11    22    23   ar
    12    23    27    1
    13    27    28    1
    14    27    29    1
    15    27    30    1
    16    23    24   ar
    17    24    25   ar
    18    25    31    1
    19    31    32    1
    20    31    33    1
    21    31    34    1
    22    25    26   ar
    23     3     4   ar
    24     4     5   ar
    25     8     9   ar
    26     9    10   ar
    27    10    11   ar
    28    11    12    1
    29    12    13   ar
    30    13    14   ar
    31    14    15   ar
    32    15    16    1
    33    15    17   ar
    34    11     6   ar
    35    17    12   ar
    36     5     1   ar
    37    26    21   ar
@<TRIPOS>MOLECULE
*****
 34 37 0 0 0
SMALL
GASTEIGER

@<TRIPOS>ATOM
      1 C         139.4020  141.2507  160.2761 C.ar    1  UNL1        0.1233
      2 C         139.1445  141.0972  161.7458 C.ar    1  UNL1        0.1179
      3 N         138.4146  142.3193  162.2187 N.ar    1  UNL1       -0.2257
      4 N         138.2210  143.2282  161.0412 N.ar    1  UNL1       -0.0635
      5 N         138.8313  142.5678  159.8406 N.ar    1  UNL1       -0.1287
      6 C         142.2976  139.3552  158.3337 C.ar    1  UNL1        0.1547
      7 C         141.5930  140.3449  159.2135 C.ar    1  UNL1        0.0400
      8 C         140.1066  140.2609  159.3962 C.ar    1  UNL1        0.0241
      9 C         139.3247  139.1873  158.6992 C.ar    1  UNL1        0.0033
     10 C         140.0292  138.1976  157.8194 C.ar    1  UNL1        0.0207
     11 C         141.5157  138.2816  157.6367 C.ar    1  UNL1        0.0994
     12 N         142.2202  137.2918  156.7568 N.ar    1  UNL1       -0.2839
     13 C         142.5266  137.4693  155.2992 C.ar    1  UNL1        0.1826
     14 N         143.2378  136.2380  154.8217 N.ar    1  UNL1       -0.2280
     15 C         143.3710  135.2994  155.9843 C.ar    1  UNL1        0.0786
     16 C         144.0193  133.9471  155.9558 C.3     1  UNL1        0.0538
     17 C         142.7421  135.9507  157.1802 C.ar    1  UNL1        0.0963
     18 C         144.3595  140.3161  157.0787 C.3     1  UNL1        0.2525
     19 O         143.7840  139.4391  158.1510 O.3     1  UNL1       -0.4700
     20 C         137.9585  142.5858  163.6226 C.3     1  UNL1        0.1556
     21 C         138.5161  141.7799  164.7581 C.ar    1  UNL1        0.0021
     22 C         139.5561  142.3752  165.6606 C.ar    1  UNL1        0.0015
     23 C         140.1137  141.5693  166.7962 C.ar    1  UNL1        0.0711
     24 C         139.6315  140.1682  167.0293 C.ar    1  UNL1        0.0077
     25 C         138.5916  139.5730  166.1269 C.ar    1  UNL1        0.0711
     26 C         138.0340  140.3789  164.9914 C.ar    1  UNL1        0.0015
     27 C         141.1536  142.1646  167.6986 C.3     1  UNL1        0.4186
     28 F         142.1935  142.7598  168.6009 F       1  UNL1       -0.1659
     29 F         140.2315  143.3065  168.0079 F       1  UNL1       -0.1659
     30 F         142.0757  141.0226  167.3892 F       1  UNL1       -0.1659
     31 C         138.1094  138.1719  166.3601 C.3     1  UNL1        0.4186
     32 F         137.6272  136.7708  166.5933 F       1  UNL1       -0.1659
     33 F         137.3321  138.6383  167.5552 F       1  UNL1       -0.1659
     34 F         138.8867  137.7055  165.1650 F       1  UNL1       -0.1659
@<TRIPOS>BOND
     1    18    19    1
     2    19     6    1
     3     6     7   ar
     4     7     8   ar
     5     8     1    1
     6     1     2   ar
     7     2     3   ar
     8     3    20    1
     9    20    21    1
    10    21    22   ar
    11    22    23   ar
    12    23    27    1
    13    27    28    1
    14    27    29    1
    15    27    30    1
    16    23    24   ar
    17    24    25   ar
    18    25    31    1
    19    31    32    1
    20    31    33    1
    21    31    34    1
    22    25    26   ar
    23     3     4   ar
    24     4     5   ar
    25     8     9   ar
    26     9    10   ar
    27    10    11   ar
    28    11    12    1
    29    12    13   ar
    30    13    14   ar
    31    14    15   ar
    32    15    16    1
    33    15    17   ar
    34    11     6   ar
    35    17    12   ar
    36     5     1   ar
    37    26    21   ar
@<TRIPOS>MOLECULE
*****
 34 37 0 0 0
SMALL
GASTEIGER

@<TRIPOS>ATOM
      1 C         140.6626  143.9458  160.9574 C.ar    1  UNL1        0.1233
      2 C         140.1619  143.1919  162.1535 C.ar    1  UNL1        0.1179
      3 N         139.0988  144.0203  162.8120 N.ar    1  UNL1       -0.2257
      4 N         138.9425  145.2863  162.0228 N.ar    1  UNL1       -0.0635
      5 N         139.9089  145.2403  160.8765 N.ar    1  UNL1       -0.1287
      6 C         142.7971  143.5106  157.6400 C.ar    1  UNL1        0.1547
      7 C         141.7301  143.9703  158.5888 C.ar    1  UNL1        0.0400
      8 C         141.7296  143.4861  160.0085 C.ar    1  UNL1        0.0241
      9 C         142.7960  142.5421  160.4794 C.ar    1  UNL1        0.0033
     10 C         143.8629  142.0825  159.5306 C.ar    1  UNL1        0.0207
     11 C         143.8634  142.5667  158.1109 C.ar    1  UNL1        0.0994
     12 N         144.9305  142.1069  157.1621 N.ar    1  UNL1       -0.2839
     13 C         144.7512  141.1253  156.0422 C.ar    1  UNL1        0.1826
     14 N         146.0740  140.9598  155.3546 N.ar    1  UNL1       -0.2280
     15 C         147.0708  141.8393  156.0495 C.ar    1  UNL1        0.0786
     16 C         148.5200  141.9843  155.6904 C.3     1  UNL1        0.0538
     17 C         146.3641  142.5482  157.1666 C.ar    1  UNL1        0.0963
     18 C         141.5025  144.3284  155.5412 C.3     1  UNL1        0.2525
     19 O         142.7976  143.9949  156.2204 O.3     1  UNL1       -0.4700
     20 C         138.3275  143.6481  164.0435 C.3     1  UNL1        0.1556
     21 C         138.8941  142.6515  165.0108 C.ar    1  UNL1        0.0021
     22 C         139.8402  143.1023  166.0840 C.ar    1  UNL1        0.0015
     23 C         140.4069  142.1057  167.0513 C.ar    1  UNL1        0.0711
     24 C         140.0275  140.6583  166.9454 C.ar    1  UNL1        0.0077
     25 C         139.0814  140.2076  165.8722 C.ar    1  UNL1        0.0711
     26 C         138.5148  141.2042  164.9049 C.ar    1  UNL1        0.0015
     27 C         141.3529  142.5564  168.1245 C.3     1  UNL1        0.4186
     28 F         142.2990  143.0072  169.1977 F       1  UNL1       -0.1659
     29 F         140.2978  143.4724  168.6699 F       1  UNL1       -0.1659
     30 F         142.4081  141.6404  167.5791 F       1  UNL1       -0.1659
     31 C         138.7020  138.7602  165.7662 C.3     1  UNL1        0.4186
     32 F         138.3226  137.3128  165.6603 F       1  UNL1       -0.1659
     33 F         139.9752  138.4808  165.0239 F       1  UNL1       -0.1659
     34 F         137.4288  139.0396  166.5085 F       1  UNL1       -0.1659
@<TRIPOS>BOND
     1    18    19    1
     2    19     6    1
     3     6     7   ar
     4     7     8   ar
     5     8     1    1
     6     1     2   ar
     7     2     3   ar
     8     3    20    1
     9    20    21    1
    10    21    22   ar
    11    22    23   ar
    12    23    27    1
    13    27    28    1
    14    27    29    1
    15    27    30    1
    16    23    24   ar
    17    24    25   ar
    18    25    31    1
    19    31    32    1
    20    31    33    1
    21    31    34    1
    22    25    26   ar
    23     3     4   ar
    24     4     5   ar
    25     8     9   ar
    26     9    10   ar
    27    10    11   ar
    28    11    12    1
    29    12    13   ar
    30    13    14   ar
    31    14    15   ar
    32    15    16    1
    33    15    17   ar
    34    11     6   ar
    35    17    12   ar
    36     5     1   ar
    37    26    21   ar
@<TRIPOS>MOLECULE
*****
 34 37 0 0 0
SMALL
GASTEIGER

@<TRIPOS>ATOM
      1 C         138.7067  142.7360  162.4028 C.ar    1  UNL1        0.1233
      2 C         139.0902  141.3912  162.9454 C.ar    1  UNL1        0.1179
      3 N         138.4134  141.2166  164.2726 N.ar    1  UNL1       -0.2257
      4 N         137.6116  142.4537  164.5503 N.ar    1  UNL1       -0.0635
      5 N         137.7929  143.3926  163.3947 N.ar    1  UNL1       -0.1287
      6 C         139.2398  143.2365  158.5021 C.ar    1  UNL1        0.1547
      7 C         138.7887  142.6511  159.8074 C.ar    1  UNL1        0.0400
      8 C         139.1579  143.3214  161.0975 C.ar    1  UNL1        0.0241
      9 C         139.9781  144.5772  161.0823 C.ar    1  UNL1        0.0033
     10 C         140.4292  145.1626  159.7771 C.ar    1  UNL1        0.0207
     11 C         140.0601  144.4922  158.4870 C.ar    1  UNL1        0.0994
     12 N         140.5112  145.0777  157.1816 N.ar    1  UNL1       -0.2839
     13 C         141.7227  144.6622  156.4008 C.ar    1  UNL1        0.1826
     14 N         141.7902  145.5091  155.1646 N.ar    1  UNL1       -0.2280
     15 C         140.6205  146.4481  155.1814 C.ar    1  UNL1        0.0786
     16 C         140.2979  147.4735  154.1354 C.3     1  UNL1        0.0538
     17 C         139.8300  146.1814  156.4280 C.ar    1  UNL1        0.0963
     18 C         137.5400  142.8421  156.5773 C.3     1  UNL1        0.2525
     19 O         138.8707  142.5661  157.2120 O.3     1  UNL1       -0.4700
     20 C         138.5196  140.0159  165.1654 C.3     1  UNL1        0.1556
     21 C         139.6955  139.8665  166.0847 C.ar    1  UNL1        0.0021
     22 C         139.5188  140.0459  167.5635 C.ar    1  UNL1        0.0015
     23 C         140.6946  139.8965  168.4828 C.ar    1  UNL1        0.0711
     24 C         142.0471  139.5678  167.9233 C.ar    1  UNL1        0.0077
     25 C         142.2236  139.3885  166.4446 C.ar    1  UNL1        0.0711
     26 C         141.0478  139.5379  165.5254 C.ar    1  UNL1        0.0015
     27 C         140.5181  140.0758  169.9615 C.3     1  UNL1        0.4186
     28 F         140.3415  140.2551  171.4402 F       1  UNL1       -0.1659
     29 F         141.6171  139.0863  170.2127 F       1  UNL1       -0.1659
     30 F         139.4191  141.0652  169.7103 F       1  UNL1       -0.1659
     31 C         143.5761  139.0598  165.8852 C.3     1  UNL1        0.4186
     32 F         144.9285  138.7311  165.3257 F       1  UNL1       -0.1659
     33 F         143.4443  140.1870  164.9043 F       1  UNL1       -0.1659
     34 F         143.7079  137.9326  166.8661 F       1  UNL1       -0.1659
@<TRIPOS>BOND
     1    18    19    1
     2    19     6    1
     3     6     7   ar
     4     7     8   ar
     5     8     1    1
     6     1     2   ar
     7     2     3   ar
     8     3    20    1
     9    20    21    1
    10    21    22   ar
    11    22    23   ar
    12    23    27    1
    13    27    28    1
    14    27    29    1
    15    27    30    1
    16    23    24   ar
    17    24    25   ar
    18    25    31    1
    19    31    32    1
    20    31    33    1
    21    31    34    1
    22    25    26   ar
    23     3     4   ar
    24     4     5   ar
    25     8     9   ar
    26     9    10   ar
    27    10    11   ar
    28    11    12    1
    29    12    13   ar
    30    13    14   ar
    31    14    15   ar
    32    15    16    1
    33    15    17   ar
    34    11     6   ar
    35    17    12   ar
    36     5     1   ar
    37    26    21   ar
@<TRIPOS>MOLECULE
*****
 34 37 0 0 0
SMALL
GASTEIGER

@<TRIPOS>ATOM
      1 C         138.5466  142.0863  161.5753 C.ar    1  UNL1        0.1233
      2 C         139.2232  140.8889  162.1741 C.ar    1  UNL1        0.1179
      3 N         138.4434  140.4739  163.3864 N.ar    1  UNL1       -0.2257
      4 N         137.2848  141.4148  163.5369 N.ar    1  UNL1       -0.0635
      5 N         137.3487  142.4113  162.4176 N.ar    1  UNL1       -0.1287
      6 C         138.9264  143.1591  157.7734 C.ar    1  UNL1        0.1547
      7 C         138.4829  142.4170  158.9992 C.ar    1  UNL1        0.0400
      8 C         138.9901  142.8284  160.3495 C.ar    1  UNL1        0.0241
      9 C         139.9408  143.9819  160.4741 C.ar    1  UNL1        0.0033
     10 C         140.3843  144.7240  159.2483 C.ar    1  UNL1        0.0207
     11 C         139.8771  144.3126  157.8979 C.ar    1  UNL1        0.0994
     12 N         140.3206  145.0548  156.6721 N.ar    1  UNL1       -0.2839
     13 C         141.4603  144.6733  155.7746 C.ar    1  UNL1        0.1826
     14 N         141.5463  145.6915  154.6764 N.ar    1  UNL1       -0.2280
     15 C         140.4597  146.7022  154.8952 C.ar    1  UNL1        0.0786
     16 C         140.1798  147.8967  154.0322 C.3     1  UNL1        0.0538
     17 C         139.7022  146.3087  156.1286 C.ar    1  UNL1        0.0963
     18 C         137.0870  143.2400  155.9403 C.3     1  UNL1        0.2525
     19 O         138.4191  142.7477  156.4230 O.3     1  UNL1       -0.4700
     20 C         138.7655  139.3204  164.2897 C.3     1  UNL1        0.1556
     21 C         139.7129  139.5084  165.4373 C.ar    1  UNL1        0.0021
     22 C         141.0871  138.9094  165.3813 C.ar    1  UNL1        0.0015
     23 C         142.0344  139.0974  166.5290 C.ar    1  UNL1        0.0711
     24 C         141.6077  139.8843  167.7327 C.ar    1  UNL1        0.0077
     25 C         140.2336  140.4832  167.7886 C.ar    1  UNL1        0.0711
     26 C         139.2862  140.2952  166.6410 C.ar    1  UNL1        0.0015
     27 C         143.4085  138.4985  166.4730 C.3     1  UNL1        0.4186
     28 F         144.7826  137.8996  166.4170 F       1  UNL1       -0.1659
     29 F         143.4639  138.7635  164.9977 F       1  UNL1       -0.1659
     30 F         143.3531  138.2334  167.9483 F       1  UNL1       -0.1659
     31 C         139.8069  141.2700  168.9923 C.3     1  UNL1        0.4186
     32 F         139.3801  142.0569  170.1960 F       1  UNL1       -0.1659
     33 F         139.0484  140.0801  169.5012 F       1  UNL1       -0.1659
     34 F         140.5653  142.4599  168.4834 F       1  UNL1       -0.1659
@<TRIPOS>BOND
     1    18    19    1
     2    19     6    1
     3     6     7   ar
     4     7     8   ar
     5     8     1    1
     6     1     2   ar
     7     2     3   ar
     8     3    20    1
     9    20    21    1
    10    21    22   ar
    11    22    23   ar
    12    23    27    1
    13    27    28    1
    14    27    29    1
    15    27    30    1
    16    23    24   ar
    17    24    25   ar
    18    25    31    1
    19    31    32    1
    20    31    33    1
    21    31    34    1
    22    25    26   ar
    23     3     4   ar
    24     4     5   ar
    25     8     9   ar
    26     9    10   ar
    27    10    11   ar
    28    11    12    1
    29    12    13   ar
    30    13    14   ar
    31    14    15   ar
    32    15    16    1
    33    15    17   ar
    34    11     6   ar
    35    17    12   ar
    36     5     1   ar
    37    26    21   ar
