@<TRIPOS>MOLECULE
*****
 26 28 0 0 0
SMALL
GASTEIGER

@<TRIPOS>ATOM
      1 C         137.7313  140.8887  162.3464 C.ar    1  UNL1        0.2181
      2 N         137.6998  142.3699  162.1129 N.ar    1  UNL1       -0.1986
      3 C         138.3550  143.2978  163.0927 C.ar    1  UNL1        0.1388
      4 C         139.0417  142.7442  164.3059 C.ar    1  UNL1        0.0786
      5 S         139.7687  143.4075  165.4379 S.2     1  UNL1       -0.0826
      6 C         140.2496  142.3360  166.3710 C.ar    1  UNL1        0.0311
      7 C         139.8198  141.0105  165.8157 C.ar    1  UNL1        0.0263
      8 C         139.0732  141.2628  164.5394 C.ar    1  UNL1        0.0933
      9 N         138.4180  140.3350  163.5596 N.ar    1  UNL1       -0.2132
     10 C         141.0244  142.5521  167.6372 C.ar    1  UNL1        0.0060
     11 C         140.3773  143.2359  168.8049 C.ar    1  UNL1        0.0005
     12 C         141.1522  143.4519  170.0711 C.ar    1  UNL1        0.0000
     13 C         142.5739  142.9841  170.1694 C.ar    1  UNL1        0.0000
     14 C         143.2210  142.3002  169.0017 C.ar    1  UNL1        0.0000
     15 C         142.4461  142.0842  167.7355 C.ar    1  UNL1        0.0005
     16 C         137.5747  139.8882  159.9538 C.3     1  UNL1        0.1108
     17 N         137.0762  139.9608  161.3666 N.pl3   1  UNL1       -0.3013
     18 H         136.3190  139.3994  161.6509 H       1  UNL1        0.1497
     19 N         138.3234  144.7792  162.8592 N.pl3   1  UNL1       -0.3176
     20 H         137.6020  145.3238  163.2494 H       1  UNL1        0.1482
     21 C         139.3909  145.4309  162.0311 C.3     1  UNL1        0.0896
     22 C         140.8039  145.4791  162.5322 C.3     1  UNL1        0.0385
     23 C         141.8159  144.4987  162.0178 C.3     1  UNL1        0.0739
     24 N         143.1596  144.3926  162.6762 N.3     1  UNL1       -0.2703
     25 C         144.2332  143.5472  162.0576 C.3     1  UNL1        0.0897
     26 C         143.4295  145.1319  163.9531 C.3     1  UNL1        0.0897
@<TRIPOS>BOND
     1    16    17    1
     2    17     1    1
     3     1     2   ar
     4     2     3   ar
     5     3    19    1
     6    19    21    1
     7    21    22    1
     8    22    23    1
     9    23    24    1
    10    24    25    1
    11    24    26    1
    12     3     4   ar
    13     4     5   ar
    14     5     6   ar
    15     6    10    1
    16    10    11   ar
    17    11    12   ar
    18    12    13   ar
    19    13    14   ar
    20    14    15   ar
    21     6     7   ar
    22     7     8   ar
    23     8     9   ar
    24     9     1   ar
    25     8     4   ar
    26    15    10   ar
    27    17    18    1
    28    19    20    1
@<TRIPOS>MOLECULE
*****
 26 28 0 0 0
SMALL
GASTEIGER

@<TRIPOS>ATOM
      1 C         142.1028  144.4801  161.8134 C.ar    1  UNL1        0.2181
      2 N         143.4638  143.9706  162.1847 N.ar    1  UNL1       -0.1986
      3 C         143.6747  143.2868  163.5031 C.ar    1  UNL1        0.1388
      4 C         142.5246  143.1127  164.4500 C.ar    1  UNL1        0.0786
      5 S         142.4294  142.4841  165.8086 S.2     1  UNL1       -0.0826
      6 C         141.0095  142.6052  166.2769 C.ar    1  UNL1        0.0311
      7 C         140.2272  143.3085  165.2077 C.ar    1  UNL1        0.0263
      8 C         141.1635  143.6222  164.0786 C.ar    1  UNL1        0.0933
      9 N         140.9527  144.3059  162.7603 N.ar    1  UNL1       -0.2132
     10 C         140.4672  142.1098  167.5848 C.ar    1  UNL1        0.0060
     11 C         140.4823  143.0032  168.7896 C.ar    1  UNL1        0.0005
     12 C         139.9399  142.5078  170.0975 C.ar    1  UNL1        0.0000
     13 C         139.3825  141.1191  170.2005 C.ar    1  UNL1        0.0000
     14 C         139.3674  140.2257  168.9957 C.ar    1  UNL1        0.0000
     15 C         139.9098  140.7211  167.6878 C.ar    1  UNL1        0.0005
     16 C         140.5057  145.5275  160.0521 C.3     1  UNL1        0.1108
     17 N         141.8919  145.1639  160.4950 N.pl3   1  UNL1       -0.3013
     18 H         142.6633  145.3740  159.9204 H       1  UNL1        0.1497
     19 N         145.0359  142.7773  163.8744 N.pl3   1  UNL1       -0.3176
     20 H         145.6165  143.3097  164.4649 H       1  UNL1        0.1482
     21 C         145.5122  141.4568  163.3461 C.3     1  UNL1        0.0896
     22 C         145.1232  140.1862  164.0421 C.3     1  UNL1        0.0385
     23 C         143.8028  139.5408  163.7422 C.3     1  UNL1        0.0739
     24 N         142.9732  138.9765  164.8573 N.3     1  UNL1       -0.2703
     25 C         141.4790  138.9345  164.7333 C.3     1  UNL1        0.0897
     26 C         143.6380  138.4542  166.0963 C.3     1  UNL1        0.0897
@<TRIPOS>BOND
     1    16    17    1
     2    17     1    1
     3     1     2   ar
     4     2     3   ar
     5     3    19    1
     6    19    21    1
     7    21    22    1
     8    22    23    1
     9    23    24    1
    10    24    25    1
    11    24    26    1
    12     3     4   ar
    13     4     5   ar
    14     5     6   ar
    15     6    10    1
    16    10    11   ar
    17    11    12   ar
    18    12    13   ar
    19    13    14   ar
    20    14    15   ar
    21     6     7   ar
    22     7     8   ar
    23     8     9   ar
    24     9     1   ar
    25     8     4   ar
    26    15    10   ar
    27    17    18    1
    28    19    20    1
@<TRIPOS>MOLECULE
*****
 26 28 0 0 0
SMALL
GASTEIGER

@<TRIPOS>ATOM
      1 C         138.9187  144.5142  162.7782 C.ar    1  UNL1        0.2181
      2 N         138.0388  143.3458  162.4462 N.ar    1  UNL1       -0.1986
      3 C         138.0413  142.1310  163.3262 C.ar    1  UNL1        0.1388
      4 C         138.9239  142.0847  164.5382 C.ar    1  UNL1        0.0786
      5 S         139.1379  141.0312  165.5842 S.2     1  UNL1       -0.0826
      6 C         140.1502  141.5486  166.5627 C.ar    1  UNL1        0.0311
      7 C         140.5618  142.9219  166.1215 C.ar    1  UNL1        0.0263
      8 C         139.8039  143.2532  164.8702 C.ar    1  UNL1        0.0933
      9 N         139.8013  144.4680  163.9902 N.ar    1  UNL1       -0.2132
     10 C         140.6613  140.8206  167.7705 C.ar    1  UNL1        0.0060
     11 C         139.8312  140.7632  169.0186 C.ar    1  UNL1        0.0005
     12 C         140.3424  140.0351  170.2264 C.ar    1  UNL1        0.0000
     13 C         141.6835  139.3644  170.1861 C.ar    1  UNL1        0.0000
     14 C         142.5135  139.4218  168.9380 C.ar    1  UNL1        0.0000
     15 C         142.0024  140.1499  167.7303 C.ar    1  UNL1        0.0005
     16 C         139.9391  145.8691  160.8102 C.3     1  UNL1        0.1108
     17 N         138.9162  145.7291  161.8983 N.pl3   1  UNL1       -0.3013
     18 H         138.2431  146.4345  162.0349 H       1  UNL1        0.1497
     19 N         137.1613  140.9625  162.9941 N.pl3   1  UNL1       -0.3176
     20 H         136.2796  140.8727  163.4229 H       1  UNL1        0.1482
     21 C         137.6245  139.9309  162.0086 C.3     1  UNL1        0.0896
     22 C         138.3512  138.7092  162.4877 C.3     1  UNL1        0.0385
     23 C         139.3096  138.0012  161.5766 C.3     1  UNL1        0.0739
     24 N         140.7058  137.7066  162.0393 N.3     1  UNL1       -0.2703
     25 C         141.8679  137.9606  161.1257 C.3     1  UNL1        0.0897
     26 C         140.9396  137.1579  163.4156 C.3     1  UNL1        0.0897
@<TRIPOS>BOND
     1    16    17    1
     2    17     1    1
     3     1     2   ar
     4     2     3   ar
     5     3    19    1
     6    19    21    1
     7    21    22    1
     8    22    23    1
     9    23    24    1
    10    24    25    1
    11    24    26    1
    12     3     4   ar
    13     4     5   ar
    14     5     6   ar
    15     6    10    1
    16    10    11   ar
    17    11    12   ar
    18    12    13   ar
    19    13    14   ar
    20    14    15   ar
    21     6     7   ar
    22     7     8   ar
    23     8     9   ar
    24     9     1   ar
    25     8     4   ar
    26    15    10   ar
    27    17    18    1
    28    19    20    1
@<TRIPOS>MOLECULE
*****
 26 28 0 0 0
SMALL
GASTEIGER

@<TRIPOS>ATOM
      1 C         142.3771  137.8732  162.1304 C.ar    1  UNL1        0.2181
      2 N         140.9299  137.5076  161.9833 N.ar    1  UNL1       -0.1986
      3 C         139.9377  137.9400  163.0220 C.ar    1  UNL1        0.1388
      4 C         140.3930  138.7380  164.2077 C.ar    1  UNL1        0.0786
      5 S         139.6509  139.3006  165.3837 S.2     1  UNL1       -0.0826
      6 C         140.6396  140.0139  166.2575 C.ar    1  UNL1        0.0311
      7 C         141.9927  139.8922  165.6217 C.ar    1  UNL1        0.0263
      8 C         141.8403  139.1036  164.3548 C.ar    1  UNL1        0.0933
      9 N         142.8324  138.6712  163.3162 N.ar    1  UNL1       -0.2132
     10 C         140.3297  140.7243  167.5418 C.ar    1  UNL1        0.0060
     11 C         140.8024  142.1321  167.7531 C.ar    1  UNL1        0.0005
     12 C         140.4924  142.8424  169.0375 C.ar    1  UNL1        0.0000
     13 C         139.7097  142.1450  170.1103 C.ar    1  UNL1        0.0000
     14 C         139.2371  140.7372  169.8990 C.ar    1  UNL1        0.0000
     15 C         139.5470  140.0269  168.6146 C.ar    1  UNL1        0.0005
     16 C         143.0391  137.5803  159.6352 C.3     1  UNL1        0.1108
     17 N         143.3693  137.4408  161.0918 N.pl3   1  UNL1       -0.3013
     18 H         144.2371  137.0656  161.3661 H       1  UNL1        0.1497
     19 N         138.4904  137.5744  162.8748 N.pl3   1  UNL1       -0.3176
     20 H         138.0746  136.9459  163.5084 H       1  UNL1        0.1482
     21 C         137.6767  138.1663  161.7625 C.3     1  UNL1        0.0896
     22 C         137.8778  139.5990  161.3664 C.3     1  UNL1        0.0385
     23 C         137.5905  140.6960  162.3483 C.3     1  UNL1        0.0739
     24 N         137.8650  142.1238  161.9794 N.3     1  UNL1       -0.2703
     25 C         137.6513  143.2133  162.9879 C.3     1  UNL1        0.0897
     26 C         138.3532  142.4619  160.6020 C.3     1  UNL1        0.0897
@<TRIPOS>BOND
     1    16    17    1
     2    17     1    1
     3     1     2   ar
     4     2     3   ar
     5     3    19    1
     6    19    21    1
     7    21    22    1
     8    22    23    1
     9    23    24    1
    10    24    25    1
    11    24    26    1
    12     3     4   ar
    13     4     5   ar
    14     5     6   ar
    15     6    10    1
    16    10    11   ar
    17    11    12   ar
    18    12    13   ar
    19    13    14   ar
    20    14    15   ar
    21     6     7   ar
    22     7     8   ar
    23     8     9   ar
    24     9     1   ar
    25     8     4   ar
    26    15    10   ar
    27    17    18    1
    28    19    20    1
@<TRIPOS>MOLECULE
*****
 26 28 0 0 0
SMALL
GASTEIGER

@<TRIPOS>ATOM
      1 C         143.9844  139.1044  162.7063 C.ar    1  UNL1        0.2181
      2 N         144.6114  140.4668  162.6822 N.ar    1  UNL1       -0.1986
      3 C         144.2616  141.4723  163.7391 C.ar    1  UNL1        0.1388
      4 C         143.2848  141.1152  164.8200 C.ar    1  UNL1        0.0786
      5 S         142.7502  141.8922  165.9863 S.2     1  UNL1       -0.0826
      6 C         141.7928  141.0099  166.7313 C.ar    1  UNL1        0.0311
      7 C         141.7357  139.6876  166.0253 C.ar    1  UNL1        0.0263
      8 C         142.6578  139.7527  164.8441 C.ar    1  UNL1        0.0933
      9 N         143.0076  138.7473  163.7872 N.ar    1  UNL1       -0.2132
     10 C         141.0269  141.3842  167.9655 C.ar    1  UNL1        0.0060
     11 C         140.1259  140.3807  168.6222 C.ar    1  UNL1        0.0005
     12 C         139.3600  140.7551  169.8565 C.ar    1  UNL1        0.0000
     13 C         139.4951  142.1328  170.4340 C.ar    1  UNL1        0.0000
     14 C         140.3960  143.1363  169.7772 C.ar    1  UNL1        0.0000
     15 C         141.1619  142.7619  168.5430 C.ar    1  UNL1        0.0005
     16 C         143.3762  137.8257  160.5281 C.3     1  UNL1        0.1108
     17 N         144.3342  138.0990  161.6495 N.pl3   1  UNL1       -0.3013
     18 H         145.1924  137.6185  161.6919 H       1  UNL1        0.1497
     19 N         144.8887  142.8347  163.7149 N.pl3   1  UNL1       -0.3176
     20 H         145.7399  142.9932  164.1835 H       1  UNL1        0.1482
     21 C         144.2188  143.9557  162.9770 C.3     1  UNL1        0.0896
     22 C         143.2910  144.8834  163.7041 C.3     1  UNL1        0.0385
     23 C         141.8797  145.0584  163.2272 C.3     1  UNL1        0.0739
     24 N         140.8406  144.0311  163.5662 N.3     1  UNL1       -0.2703
     25 C         140.6941  142.8038  162.7164 C.3     1  UNL1        0.0897
     26 C         139.9480  144.2311  164.7550 C.3     1  UNL1        0.0897
@<TRIPOS>BOND
     1    16    17    1
     2    17     1    1
     3     1     2   ar
     4     2     3   ar
     5     3    19    1
     6    19    21    1
     7    21    22    1
     8    22    23    1
     9    23    24    1
    10    24    25    1
    11    24    26    1
    12     3     4   ar
    13     4     5   ar
    14     5     6   ar
    15     6    10    1
    16    10    11   ar
    17    11    12   ar
    18    12    13   ar
    19    13    14   ar
    20    14    15   ar
    21     6     7   ar
    22     7     8   ar
    23     8     9   ar
    24     9     1   ar
    25     8     4   ar
    26    15    10   ar
    27    17    18    1
    28    19    20    1
@<TRIPOS>MOLECULE
*****
 26 28 0 0 0
SMALL
GASTEIGER

@<TRIPOS>ATOM
      1 C         139.0269  140.3111  162.1779 C.ar    1  UNL1        0.2181
      2 N         140.0682  141.1995  161.5646 N.ar    1  UNL1       -0.1986
      3 C         141.0138  141.9639  162.4431 C.ar    1  UNL1        0.1388
      4 C         140.9178  141.8399  163.9349 C.ar    1  UNL1        0.0786
      5 S         141.7062  142.4661  165.0468 S.2     1  UNL1       -0.0826
      6 C         141.1519  141.9647  166.3473 C.ar    1  UNL1        0.0311
      7 C         140.0211  141.0286  166.0392 C.ar    1  UNL1        0.0263
      8 C         139.8764  140.9515  164.5482 C.ar    1  UNL1        0.0933
      9 N         138.9309  140.1871  163.6697 N.ar    1  UNL1       -0.2132
     10 C         141.6424  142.3344  167.7158 C.ar    1  UNL1        0.0060
     11 C         140.7245  143.0253  168.6802 C.ar    1  UNL1        0.0005
     12 C         141.2151  143.3950  170.0487 C.ar    1  UNL1        0.0000
     13 C         142.6235  143.0738  170.4528 C.ar    1  UNL1        0.0000
     14 C         143.5414  142.3830  169.4884 C.ar    1  UNL1        0.0000
     15 C         143.0508  142.0133  168.1199 C.ar    1  UNL1        0.0005
     16 C         137.7130  138.1341  161.6445 C.3     1  UNL1        0.1108
     17 N         138.0813  139.5467  161.2995 N.pl3   1  UNL1       -0.3013
     18 H         137.7024  139.9720  160.4965 H       1  UNL1        0.1497
     19 N         142.0552  142.8524  161.8297 N.pl3   1  UNL1       -0.3176
     20 H         142.8823  142.4622  161.4650 H       1  UNL1        0.1482
     21 C         141.8365  144.3352  161.7720 C.3     1  UNL1        0.0896
     22 C         140.4693  144.8809  161.4841 C.3     1  UNL1        0.0385
     23 C         139.6821  145.5452  162.5745 C.3     1  UNL1        0.0739
     24 N         138.7839  144.7284  163.4555 N.3     1  UNL1       -0.2703
     25 C         137.7879  143.7876  162.8448 C.3     1  UNL1        0.0897
     26 C         138.8817  144.8524  164.9472 C.3     1  UNL1        0.0897
@<TRIPOS>BOND
     1    16    17    1
     2    17     1    1
     3     1     2   ar
     4     2     3   ar
     5     3    19    1
     6    19    21    1
     7    21    22    1
     8    22    23    1
     9    23    24    1
    10    24    25    1
    11    24    26    1
    12     3     4   ar
    13     4     5   ar
    14     5     6   ar
    15     6    10    1
    16    10    11   ar
    17    11    12   ar
    18    12    13   ar
    19    13    14   ar
    20    14    15   ar
    21     6     7   ar
    22     7     8   ar
    23     8     9   ar
    24     9     1   ar
    25     8     4   ar
    26    15    10   ar
    27    17    18    1
    28    19    20    1
@<TRIPOS>MOLECULE
*****
 26 28 0 0 0
SMALL
GASTEIGER

@<TRIPOS>ATOM
      1 C         138.5321  139.1969  162.7001 C.ar    1  UNL1        0.2181
      2 N         139.8224  138.4408  162.5843 N.ar    1  UNL1       -0.1986
      3 C         140.9187  138.6710  163.5820 C.ar    1  UNL1        0.1388
      4 C         140.7246  139.6572  164.6953 C.ar    1  UNL1        0.0786
      5 S         141.6188  140.0914  165.8187 S.2     1  UNL1       -0.0826
      6 C         140.8810  141.1159  166.6288 C.ar    1  UNL1        0.0311
      7 C         139.5309  141.3148  166.0061 C.ar    1  UNL1        0.0263
      8 C         139.4343  140.4132  164.8111 C.ar    1  UNL1        0.0933
      9 N         138.3380  140.1831  163.8135 N.ar    1  UNL1       -0.2132
     10 C         141.4019  141.8182  167.8476 C.ar    1  UNL1        0.0060
     11 C         140.5165  142.7633  168.6044 C.ar    1  UNL1        0.0005
     12 C         141.0374  143.4656  169.8232 C.ar    1  UNL1        0.0000
     13 C         142.4437  143.2228  170.2852 C.ar    1  UNL1        0.0000
     14 C         143.3291  142.2776  169.5284 C.ar    1  UNL1        0.0000
     15 C         142.8081  141.5754  168.3096 C.ar    1  UNL1        0.0005
     16 C         137.3677  139.8004  160.4574 C.3     1  UNL1        0.1108
     17 N         137.4358  138.9667  161.7025 N.pl3   1  UNL1       -0.3013
     18 H         136.7610  138.2685  161.8649 H       1  UNL1        0.1497
     19 N         142.2091  137.9148  163.4661 N.pl3   1  UNL1       -0.3176
     20 H         142.3076  137.0393  163.9053 H       1  UNL1        0.1482
     21 C         143.3491  138.4928  162.6811 C.3     1  UNL1        0.0896
     22 C         144.4079  139.2957  163.3771 C.3     1  UNL1        0.0385
     23 C         144.7026  140.6965  162.9289 C.3     1  UNL1        0.0739
     24 N         143.9177  141.8447  163.4908 N.3     1  UNL1       -0.2703
     25 C         142.6596  142.2972  162.8109 C.3     1  UNL1        0.0897
     26 C         144.3910  142.5402  164.7327 C.3     1  UNL1        0.0897
@<TRIPOS>BOND
     1    16    17    1
     2    17     1    1
     3     1     2   ar
     4     2     3   ar
     5     3    19    1
     6    19    21    1
     7    21    22    1
     8    22    23    1
     9    23    24    1
    10    24    25    1
    11    24    26    1
    12     3     4   ar
    13     4     5   ar
    14     5     6   ar
    15     6    10    1
    16    10    11   ar
    17    11    12   ar
    18    12    13   ar
    19    13    14   ar
    20    14    15   ar
    21     6     7   ar
    22     7     8   ar
    23     8     9   ar
    24     9     1   ar
    25     8     4   ar
    26    15    10   ar
    27    17    18    1
    28    19    20    1
@<TRIPOS>MOLECULE
*****
 26 28 0 0 0
SMALL
GASTEIGER

@<TRIPOS>ATOM
      1 C         138.7729  142.3571  161.5509 C.ar    1  UNL1        0.2181
      2 N         138.3864  140.9599  161.9359 N.ar    1  UNL1       -0.1986
      3 C         138.7376  140.4322  163.2954 C.ar    1  UNL1        0.1388
      4 C         139.4752  141.3018  164.2699 C.ar    1  UNL1        0.0786
      5 S         139.9537  141.0577  165.6704 S.2     1  UNL1       -0.0826
      6 C         140.6359  142.3041  166.1510 C.ar    1  UNL1        0.0311
      7 C         140.5791  143.3185  165.0475 C.ar    1  UNL1        0.0263
      8 C         139.8617  142.6990  163.8849 C.ar    1  UNL1        0.0933
      9 N         139.5106  143.2267  162.5254 N.ar    1  UNL1       -0.2132
     10 C         141.2645  142.5015  167.4985 C.ar    1  UNL1        0.0060
     11 C         140.4670  143.1036  168.6173 C.ar    1  UNL1        0.0005
     12 C         141.0958  143.3009  169.9648 C.ar    1  UNL1        0.0000
     13 C         142.5219  142.8963  170.1936 C.ar    1  UNL1        0.0000
     14 C         143.3194  142.2943  169.0749 C.ar    1  UNL1        0.0000
     15 C         142.6907  142.0969  167.7274 C.ar    1  UNL1        0.0005
     16 C         139.5065  143.3369  159.2593 C.3     1  UNL1        0.1108
     17 N         138.4217  142.8849  160.1914 N.pl3   1  UNL1       -0.3013
     18 H         137.4793  142.9346  159.9110 H       1  UNL1        0.1497
     19 N         138.3510  139.0348  163.6804 N.pl3   1  UNL1       -0.3176
     20 H         137.6507  138.8863  164.3562 H       1  UNL1        0.1482
     21 C         139.0314  137.8639  163.0356 C.3     1  UNL1        0.0896
     22 C         140.5257  137.8429  162.9060 C.3     1  UNL1        0.0385
     23 C         141.3792  137.5721  164.1094 C.3     1  UNL1        0.0739
     24 N         142.4580  138.5397  164.4970 N.3     1  UNL1       -0.2703
     25 C         142.8205  139.6670  163.5763 C.3     1  UNL1        0.0897
     26 C         143.1741  138.3798  165.8052 C.3     1  UNL1        0.0897
@<TRIPOS>BOND
     1    16    17    1
     2    17     1    1
     3     1     2   ar
     4     2     3   ar
     5     3    19    1
     6    19    21    1
     7    21    22    1
     8    22    23    1
     9    23    24    1
    10    24    25    1
    11    24    26    1
    12     3     4   ar
    13     4     5   ar
    14     5     6   ar
    15     6    10    1
    16    10    11   ar
    17    11    12   ar
    18    12    13   ar
    19    13    14   ar
    20    14    15   ar
    21     6     7   ar
    22     7     8   ar
    23     8     9   ar
    24     9     1   ar
    25     8     4   ar
    26    15    10   ar
    27    17    18    1
    28    19    20    1
@<TRIPOS>MOLECULE
*****
 26 28 0 0 0
SMALL
GASTEIGER

@<TRIPOS>ATOM
      1 C         138.7005  144.6514  162.9141 C.ar    1  UNL1        0.2181
      2 N         137.8521  143.4673  162.5563 N.ar    1  UNL1       -0.1986
      3 C         137.9100  142.2231  163.3923 C.ar    1  UNL1        0.1388
      4 C         138.8162  142.1632  164.5861 C.ar    1  UNL1        0.0786
      5 S         139.0834  141.0812  165.5900 S.2     1  UNL1       -0.0826
      6 C         140.0969  141.5967  166.5683 C.ar    1  UNL1        0.0311
      7 C         140.4561  142.9972  166.1690 C.ar    1  UNL1        0.0263
      8 C         139.6646  143.3474  164.9439 C.ar    1  UNL1        0.0933
      9 N         139.6067  144.5915  164.1079 N.ar    1  UNL1       -0.2132
     10 C         140.6536  140.8438  167.7402 C.ar    1  UNL1        0.0060
     11 C         139.8617  140.7405  169.0099 C.ar    1  UNL1        0.0005
     12 C         140.4185  139.9876  170.1818 C.ar    1  UNL1        0.0000
     13 C         141.7669  139.3380  170.0839 C.ar    1  UNL1        0.0000
     14 C         142.5588  139.4413  168.8142 C.ar    1  UNL1        0.0000
     15 C         142.0020  140.1942  167.6423 C.ar    1  UNL1        0.0005
     16 C         139.8059  146.2690  161.2079 C.3     1  UNL1        0.1108
     17 N         138.6427  145.8956  162.0781 N.pl3   1  UNL1       -0.3013
     18 H         137.8413  146.4670  162.1007 H       1  UNL1        0.1497
     19 N         137.0615  141.0390  163.0344 N.pl3   1  UNL1       -0.3176
     20 H         136.1692  140.9332  163.4367 H       1  UNL1        0.1482
     21 C         137.5726  140.0161  162.0637 C.3     1  UNL1        0.0896
     22 C         138.4423  140.4392  160.9170 C.3     1  UNL1        0.0385
     23 C         138.0426  140.1067  159.5100 C.3     1  UNL1        0.0739
     24 N         138.0369  141.1771  158.4591 N.3     1  UNL1       -0.2703
     25 C         137.4907  140.8841  157.0932 C.3     1  UNL1        0.0897
     26 C         138.5774  142.5403  158.7742 C.3     1  UNL1        0.0897
@<TRIPOS>BOND
     1    16    17    1
     2    17     1    1
     3     1     2   ar
     4     2     3   ar
     5     3    19    1
     6    19    21    1
     7    21    22    1
     8    22    23    1
     9    23    24    1
    10    24    25    1
    11    24    26    1
    12     3     4   ar
    13     4     5   ar
    14     5     6   ar
    15     6    10    1
    16    10    11   ar
    17    11    12   ar
    18    12    13   ar
    19    13    14   ar
    20    14    15   ar
    21     6     7   ar
    22     7     8   ar
    23     8     9   ar
    24     9     1   ar
    25     8     4   ar
    26    15    10   ar
    27    17    18    1
    28    19    20    1
