@<TRIPOS>MOLECULE
*****
 21 23 0 0 0
SMALL
GASTEIGER

@<TRIPOS>ATOM
      1 N         138.0442  140.5171  163.1793 N.ar    1  UNL1       -0.3165
      2 C         137.8980  139.3099  162.3012 C.ar    1  UNL1        0.0779
      3 C         138.8512  138.2611  162.7926 C.ar    1  UNL1        0.0392
      4 C         139.5865  138.8202  163.9745 C.ar    1  UNL1        0.0985
      5 N         140.6457  138.2398  164.8639 N.ar    1  UNL1       -0.2423
      6 C         141.2062  139.0537  165.9923 C.ar    1  UNL1        0.0994
      7 C         140.7075  140.4480  166.2313 C.ar    1  UNL1        0.0266
      8 C         139.6482  141.0284  165.3419 C.ar    1  UNL1        0.0208
      9 C         139.0877  140.2145  164.2135 C.ar    1  UNL1        0.0782
     10 C         141.2680  141.2619  167.3598 C.ar    1  UNL1        0.0318
     11 C         140.5259  142.2942  168.1558 C.ar    1  UNL1        0.0079
     12 C         141.4682  142.8567  169.1784 C.ar    1  UNL1        0.0185
     13 C         142.7927  142.1720  169.0143 C.ar    1  UNL1        0.0870
     14 CL        144.0247  142.4280  169.8308 Cl      1  UNL1       -0.0752
     15 S         142.6690  141.1864  167.8904 S.2     1  UNL1       -0.0755
     16 C         137.2809  141.8015  163.0466 C.3     1  UNL1        0.1920
     17 C         138.9557  145.3582  162.5030 C.3     1  UNL1        0.1150
     18 N         138.3247  144.1771  163.1789 N.am    1  UNL1       -0.2744
     19 C         138.1062  144.1905  164.6629 C.3     1  UNL1        0.1150
     20 C         137.9120  142.9827  162.3708 C.2     1  UNL1        0.2488
     21 O         138.1305  142.9694  160.8868 O.2     1  UNL1       -0.2728
@<TRIPOS>BOND
     1    17    18    1
     2    18    19    1
     3    18    20   am
     4    20    21    2
     5    20    16    1
     6    16     1    1
     7     1     2   ar
     8     2     3   ar
     9     3     4   ar
    10     4     5   ar
    11     5     6   ar
    12     6     7   ar
    13     7    10    1
    14    10    11   ar
    15    11    12   ar
    16    12    13   ar
    17    13    14    1
    18    13    15   ar
    19     7     8   ar
    20     8     9   ar
    21     9     1   ar
    22     9     4   ar
    23    15    10   ar
@<TRIPOS>MOLECULE
*****
 21 23 0 0 0
SMALL
GASTEIGER

@<TRIPOS>ATOM
      1 N         137.9063  141.4295  162.6220 N.ar    1  UNL1       -0.3165
      2 C         137.6502  140.3835  161.5777 C.ar    1  UNL1        0.0779
      3 C         138.0268  139.0510  162.1544 C.ar    1  UNL1        0.0392
      4 C         138.5155  139.2734  163.5550 C.ar    1  UNL1        0.0985
      5 N         139.0188  138.3272  164.6045 N.ar    1  UNL1       -0.2423
      6 C         139.4475  138.8511  165.9431 C.ar    1  UNL1        0.0994
      7 C         139.3730  140.3211  166.2320 C.ar    1  UNL1        0.0266
      8 C         138.8698  141.2673  165.1825 C.ar    1  UNL1        0.0208
      9 C         138.4410  140.7434  163.8440 C.ar    1  UNL1        0.0782
     10 C         139.8018  140.8450  167.5707 C.ar    1  UNL1        0.0318
     11 C         139.4622  140.2443  168.9025 C.ar    1  UNL1        0.0079
     12 C         140.0959  141.0895  169.9674 C.ar    1  UNL1        0.0185
     13 C         140.8271  142.2127  169.2936 C.ar    1  UNL1        0.0870
     14 CL        141.6037  143.2967  169.9806 Cl      1  UNL1       -0.0752
     15 S         140.6453  142.0616  167.8124 S.2     1  UNL1       -0.0755
     16 C         137.6691  142.9029  162.4708 C.3     1  UNL1        0.1920
     17 C         140.5537  145.6261  162.3554 C.3     1  UNL1        0.1150
     18 N         139.4610  144.7401  162.8759 N.am    1  UNL1       -0.2744
     19 C         139.0672  144.8054  164.3218 C.3     1  UNL1        0.1150
     20 C         138.7620  143.7889  161.9504 C.2     1  UNL1        0.2488
     21 O         139.1558  143.7237  160.5044 O.2     1  UNL1       -0.2728
@<TRIPOS>BOND
     1    17    18    1
     2    18    19    1
     3    18    20   am
     4    20    21    2
     5    20    16    1
     6    16     1    1
     7     1     2   ar
     8     2     3   ar
     9     3     4   ar
    10     4     5   ar
    11     5     6   ar
    12     6     7   ar
    13     7    10    1
    14    10    11   ar
    15    11    12   ar
    16    12    13   ar
    17    13    14    1
    18    13    15   ar
    19     7     8   ar
    20     8     9   ar
    21     9     1   ar
    22     9     4   ar
    23    15    10   ar
@<TRIPOS>MOLECULE
*****
 21 23 0 0 0
SMALL
GASTEIGER

@<TRIPOS>ATOM
      1 N         138.9124  143.3832  163.6571 N.ar    1  UNL1       -0.3165
      2 C         137.7754  142.8743  162.8214 C.ar    1  UNL1        0.0779
      3 C         137.3553  141.5436  163.3716 C.ar    1  UNL1        0.0392
      4 C         138.2325  141.2301  164.5473 C.ar    1  UNL1        0.0985
      5 N         138.2794  140.0563  165.4800 N.ar    1  UNL1       -0.2423
      6 C         139.2886  140.0195  166.5891 C.ar    1  UNL1        0.0994
      7 C         140.2510  141.1565  166.7655 C.ar    1  UNL1        0.0266
      8 C         140.2041  142.3303  165.8328 C.ar    1  UNL1        0.0208
      9 C         139.1949  142.3671  164.7237 C.ar    1  UNL1        0.0782
     10 C         141.2602  141.1196  167.8746 C.ar    1  UNL1        0.0318
     11 C         141.3661  140.0645  168.9355 C.ar    1  UNL1        0.0079
     12 C         142.5120  140.4241  169.8342 C.ar    1  UNL1        0.0185
     13 C         143.1143  141.7016  169.3286 C.ar    1  UNL1        0.0870
     14 CL        144.2848  142.4225  169.9287 Cl      1  UNL1       -0.0752
     15 S         142.3407  142.1314  168.1175 S.2     1  UNL1       -0.0755
     16 C         139.6393  144.6806  163.4606 C.3     1  UNL1        0.1920
     17 C         141.2289  145.2491  159.8689 C.3     1  UNL1        0.1150
     18 N         141.0091  144.7147  161.2531 N.am    1  UNL1       -0.2744
     19 C         141.9391  143.6803  161.8143 C.3     1  UNL1        0.1150
     20 C         139.8591  145.2149  162.0762 C.2     1  UNL1        0.2488
     21 O         138.9291  146.2493  161.5151 O.2     1  UNL1       -0.2728
@<TRIPOS>BOND
     1    17    18    1
     2    18    19    1
     3    18    20   am
     4    20    21    2
     5    20    16    1
     6    16     1    1
     7     1     2   ar
     8     2     3   ar
     9     3     4   ar
    10     4     5   ar
    11     5     6   ar
    12     6     7   ar
    13     7    10    1
    14    10    11   ar
    15    11    12   ar
    16    12    13   ar
    17    13    14    1
    18    13    15   ar
    19     7     8   ar
    20     8     9   ar
    21     9     1   ar
    22     9     4   ar
    23    15    10   ar
@<TRIPOS>MOLECULE
*****
 21 23 0 0 0
SMALL
GASTEIGER

@<TRIPOS>ATOM
      1 N         142.1212  138.4377  163.6000 N.ar    1  UNL1       -0.3165
      2 C         141.4564  137.6332  162.5226 C.ar    1  UNL1        0.0779
      3 C         139.9857  137.5928  162.8150 C.ar    1  UNL1        0.0392
      4 C         139.7416  138.3724  164.0730 C.ar    1  UNL1        0.0985
      5 N         138.4881  138.6742  164.8395 N.ar    1  UNL1       -0.2423
      6 C         138.5544  139.4981  166.0911 C.ar    1  UNL1        0.0994
      7 C         139.8742  140.0203  166.5763 C.ar    1  UNL1        0.0266
      8 C         141.1277  139.7185  165.8099 C.ar    1  UNL1        0.0208
      9 C         141.0615  138.8945  164.5582 C.ar    1  UNL1        0.0782
     10 C         139.9405  140.8443  167.8280 C.ar    1  UNL1        0.0318
     11 C         139.4474  140.4307  169.1830 C.ar    1  UNL1        0.0079
     12 C         139.7136  141.5573  170.1369 C.ar    1  UNL1        0.0185
     13 C         140.3712  142.6671  169.3715 C.ar    1  UNL1        0.0870
     14 CL        140.8113  143.9861  169.9342 Cl      1  UNL1       -0.0752
     15 S         140.5114  142.2265  167.9445 S.2     1  UNL1       -0.0755
     16 C         143.5883  138.7335  163.7014 C.3     1  UNL1        0.1920
     17 C         144.8655  142.0041  161.8515 C.3     1  UNL1        0.1150
     18 N         144.3642  140.6088  162.0792 N.am    1  UNL1       -0.2744
     19 C         144.1376  139.6935  160.9127 C.3     1  UNL1        0.1150
     20 C         144.0896  140.1288  163.4736 C.2     1  UNL1        0.2488
     21 O         144.3162  141.0441  164.6401 O.2     1  UNL1       -0.2728
@<TRIPOS>BOND
     1    17    18    1
     2    18    19    1
     3    18    20   am
     4    20    21    2
     5    20    16    1
     6    16     1    1
     7     1     2   ar
     8     2     3   ar
     9     3     4   ar
    10     4     5   ar
    11     5     6   ar
    12     6     7   ar
    13     7    10    1
    14    10    11   ar
    15    11    12   ar
    16    12    13   ar
    17    13    14    1
    18    13    15   ar
    19     7     8   ar
    20     8     9   ar
    21     9     1   ar
    22     9     4   ar
    23    15    10   ar
@<TRIPOS>MOLECULE
*****
 21 23 0 0 0
SMALL
GASTEIGER

@<TRIPOS>ATOM
      1 N         144.3014  140.4049  162.5757 N.ar    1  UNL1       -0.3165
      2 C         144.2978  139.6071  161.3055 C.ar    1  UNL1        0.0779
      3 C         143.3550  138.4543  161.4849 C.ar    1  UNL1        0.0392
      4 C         142.7760  138.5396  162.8660 C.ar    1  UNL1        0.0985
      5 N         141.7917  137.6753  163.5969 N.ar    1  UNL1       -0.2423
      6 C         141.3923  138.0166  165.0018 C.ar    1  UNL1        0.0994
      7 C         141.9772  139.2222  165.6759 C.ar    1  UNL1        0.0266
      8 C         142.9615  140.0865  164.9451 C.ar    1  UNL1        0.0208
      9 C         143.3609  139.7452  163.5402 C.ar    1  UNL1        0.0782
     10 C         141.5778  139.5635  167.0810 C.ar    1  UNL1        0.0318
     11 C         142.4658  139.5065  168.2886 C.ar    1  UNL1        0.0079
     12 C         141.6571  139.9294  169.4790 C.ar    1  UNL1        0.0185
     13 C         140.2693  140.2479  169.0071 C.ar    1  UNL1        0.0870
     14 CL        139.1304  140.7111  169.8665 Cl      1  UNL1       -0.0752
     15 S         140.2203  140.0217  167.5251 S.2     1  UNL1       -0.0755
     16 C         145.1045  141.6449  162.8358 C.3     1  UNL1        0.1920
     17 C         143.5595  145.2099  163.6441 C.3     1  UNL1        0.1150
     18 N         144.1827  143.8590  163.8350 N.am    1  UNL1       -0.2744
     19 C         144.5073  143.3710  165.2157 C.3     1  UNL1        0.1150
     20 C         144.4812  142.9959  162.6450 C.2     1  UNL1        0.2488
     21 O         144.1565  143.4839  161.2642 O.2     1  UNL1       -0.2728
@<TRIPOS>BOND
     1    17    18    1
     2    18    19    1
     3    18    20   am
     4    20    21    2
     5    20    16    1
     6    16     1    1
     7     1     2   ar
     8     2     3   ar
     9     3     4   ar
    10     4     5   ar
    11     5     6   ar
    12     6     7   ar
    13     7    10    1
    14    10    11   ar
    15    11    12   ar
    16    12    13   ar
    17    13    14    1
    18    13    15   ar
    19     7     8   ar
    20     8     9   ar
    21     9     1   ar
    22     9     4   ar
    23    15    10   ar
@<TRIPOS>MOLECULE
*****
 21 23 0 0 0
SMALL
GASTEIGER

@<TRIPOS>ATOM
      1 N         141.8001  143.8436  160.8347 N.ar    1  UNL1       -0.3165
      2 C         141.4277  145.0434  160.0151 C.ar    1  UNL1        0.0779
      3 C         140.0908  145.5314  160.4887 C.ar    1  UNL1        0.0392
      4 C         139.6368  144.6332  161.6010 C.ar    1  UNL1        0.0985
      5 N         138.3980  144.6305  162.4467 N.ar    1  UNL1       -0.2423
      6 C         138.2156  143.5846  163.5063 C.ar    1  UNL1        0.0994
      7 C         139.2720  142.5414  163.7202 C.ar    1  UNL1        0.0266
      8 C         140.5109  142.5442  162.8744 C.ar    1  UNL1        0.0208
      9 C         140.6932  143.5901  161.8149 C.ar    1  UNL1        0.0782
     10 C         139.0896  141.4955  164.7798 C.ar    1  UNL1        0.0318
     11 C         138.1915  140.2974  164.6907 C.ar    1  UNL1        0.0079
     12 C         138.3200  139.5254  165.9703 C.ar    1  UNL1        0.0185
     13 C         139.2976  140.2465  166.8504 C.ar    1  UNL1        0.0870
     14 CL        139.7247  139.8241  168.2249 Cl      1  UNL1       -0.0752
     15 S         139.7732  141.4640  166.1146 S.2     1  UNL1       -0.0755
     16 C         143.0584  143.0385  160.6982 C.3     1  UNL1        0.1920
     17 C         145.7212  141.8126  163.3734 C.3     1  UNL1        0.1150
     18 N         144.6912  141.7849  162.2833 N.am    1  UNL1       -0.2744
     19 C         144.2640  140.4760  161.6882 C.3     1  UNL1        0.1150
     20 C         144.0884  143.0662  161.7884 C.2     1  UNL1        0.2488
     21 O         144.5156  144.3751  162.3835 O.2     1  UNL1       -0.2728
@<TRIPOS>BOND
     1    17    18    1
     2    18    19    1
     3    18    20   am
     4    20    21    2
     5    20    16    1
     6    16     1    1
     7     1     2   ar
     8     2     3   ar
     9     3     4   ar
    10     4     5   ar
    11     5     6   ar
    12     6     7   ar
    13     7    10    1
    14    10    11   ar
    15    11    12   ar
    16    12    13   ar
    17    13    14    1
    18    13    15   ar
    19     7     8   ar
    20     8     9   ar
    21     9     1   ar
    22     9     4   ar
    23    15    10   ar
@<TRIPOS>MOLECULE
*****
 21 23 0 0 0
SMALL
GASTEIGER

@<TRIPOS>ATOM
      1 N         144.0314  141.9097  162.9099 N.ar    1  UNL1       -0.3165
      2 C         144.3654  140.7397  162.0326 C.ar    1  UNL1        0.0779
      3 C         144.1839  139.4885  162.8397 C.ar    1  UNL1        0.0392
      4 C         143.7378  139.8851  164.2158 C.ar    1  UNL1        0.0985
      5 N         143.4052  139.0770  165.4349 N.ar    1  UNL1       -0.2423
      6 C         142.9784  139.7653  166.6974 C.ar    1  UNL1        0.0994
      7 C         142.8841  141.2617  166.7408 C.ar    1  UNL1        0.0266
      8 C         143.2167  142.0698  165.5217 C.ar    1  UNL1        0.0208
      9 C         143.6435  141.3815  164.2592 C.ar    1  UNL1        0.0782
     10 C         142.4573  141.9500  168.0034 C.ar    1  UNL1        0.0318
     11 C         143.3445  142.2954  169.1626 C.ar    1  UNL1        0.0079
     12 C         142.5040  142.9726  170.2041 C.ar    1  UNL1        0.0185
     13 C         141.0972  143.0458  169.6886 C.ar    1  UNL1        0.0870
     14 CL        139.9250  143.6456  170.4071 Cl      1  UNL1       -0.0752
     15 S         141.0684  142.4138  168.3286 S.2     1  UNL1       -0.0755
     16 C         144.0773  143.3542  162.5084 C.3     1  UNL1        0.1920
     17 C         140.8189  145.2799  161.3147 C.3     1  UNL1        0.1150
     18 N         141.8847  144.7151  162.2063 N.am    1  UNL1       -0.2744
     19 C         141.8241  144.9462  163.6871 C.3     1  UNL1        0.1150
     20 C         143.0113  143.9191  161.6169 C.2     1  UNL1        0.2488
     21 O         143.0719  143.6880  160.1360 O.2     1  UNL1       -0.2728
@<TRIPOS>BOND
     1    17    18    1
     2    18    19    1
     3    18    20   am
     4    20    21    2
     5    20    16    1
     6    16     1    1
     7     1     2   ar
     8     2     3   ar
     9     3     4   ar
    10     4     5   ar
    11     5     6   ar
    12     6     7   ar
    13     7    10    1
    14    10    11   ar
    15    11    12   ar
    16    12    13   ar
    17    13    14    1
    18    13    15   ar
    19     7     8   ar
    20     8     9   ar
    21     9     1   ar
    22     9     4   ar
    23    15    10   ar
@<TRIPOS>MOLECULE
*****
 21 23 0 0 0
SMALL
GASTEIGER

@<TRIPOS>ATOM
      1 N         142.7874  138.9419  163.1758 N.ar    1  UNL1       -0.3165
      2 C         143.9308  139.3202  162.2816 C.ar    1  UNL1        0.0779
      3 C         144.6109  140.5160  162.8797 C.ar    1  UNL1        0.0392
      4 C         143.8879  140.8766  164.1435 C.ar    1  UNL1        0.0985
      5 N         144.1101  141.9652  165.1512 N.ar    1  UNL1       -0.2423
      6 C         143.2053  142.0809  166.3420 C.ar    1  UNL1        0.0994
      7 C         142.0783  141.1081  166.5249 C.ar    1  UNL1        0.0266
      8 C         141.8561  140.0196  165.5172 C.ar    1  UNL1        0.0208
      9 C         142.7609  139.9038  164.3264 C.ar    1  UNL1        0.0782
     10 C         141.1735  141.2239  167.7158 C.ar    1  UNL1        0.0318
     11 C         140.2303  140.1685  168.2123 C.ar    1  UNL1        0.0079
     12 C         139.5269  140.7077  169.4225 C.ar    1  UNL1        0.0185
     13 C         140.0354  142.0963  169.6739 C.ar    1  UNL1        0.0870
     14 CL        139.6023  143.0062  170.7850 Cl      1  UNL1       -0.0752
     15 S         141.0530  142.4153  168.6190 S.2     1  UNL1       -0.0755
     16 C         141.8373  137.8019  162.9576 C.3     1  UNL1        0.1920
     17 C         138.0148  138.1757  161.9583 C.3     1  UNL1        0.1150
     18 N         139.2507  137.9744  162.7840 N.am    1  UNL1       -0.2744
     19 C         139.1363  137.7442  164.2618 C.3     1  UNL1        0.1150
     20 C         140.6013  138.0032  162.1319 C.2     1  UNL1        0.2488
     21 O         140.7157  138.2333  160.6540 O.2     1  UNL1       -0.2728
@<TRIPOS>BOND
     1    17    18    1
     2    18    19    1
     3    18    20   am
     4    20    21    2
     5    20    16    1
     6    16     1    1
     7     1     2   ar
     8     2     3   ar
     9     3     4   ar
    10     4     5   ar
    11     5     6   ar
    12     6     7   ar
    13     7    10    1
    14    10    11   ar
    15    11    12   ar
    16    12    13   ar
    17    13    14    1
    18    13    15   ar
    19     7     8   ar
    20     8     9   ar
    21     9     1   ar
    22     9     4   ar
    23    15    10   ar
@<TRIPOS>MOLECULE
*****
 21 23 0 0 0
SMALL
GASTEIGER

@<TRIPOS>ATOM
      1 N         144.2249  142.8147  163.6114 N.ar    1  UNL1       -0.3165
      2 C         144.4148  144.1054  162.8710 C.ar    1  UNL1        0.0779
      3 C         143.1654  144.9197  163.0313 C.ar    1  UNL1        0.0392
      4 C         142.2033  144.1324  163.8706 C.ar    1  UNL1        0.0985
      5 N         140.8156  144.4321  164.3548 N.ar    1  UNL1       -0.2423
      6 C         140.0827  143.4307  165.1974 C.ar    1  UNL1        0.0994
      7 C         140.7376  142.1297  165.5559 C.ar    1  UNL1        0.0266
      8 C         142.1253  141.8300  165.0718 C.ar    1  UNL1        0.0208
      9 C         142.8581  142.8314  164.2291 C.ar    1  UNL1        0.0782
     10 C         140.0046  141.1283  166.3986 C.ar    1  UNL1        0.0318
     11 C         140.1227  140.9727  167.8859 C.ar    1  UNL1        0.0079
     12 C         139.2160  139.8550  168.3085 C.ar    1  UNL1        0.0185
     13 C         138.5375  139.3198  167.0824 C.ar    1  UNL1        0.0870
     14 CL        137.5458  138.1950  167.0434 Cl      1  UNL1       -0.0752
     15 S         139.0249  140.1067  165.9020 S.2     1  UNL1       -0.0755
     16 C         145.2260  141.7025  163.7156 C.3     1  UNL1        0.1920
     17 C         143.8257  138.3990  162.0197 C.3     1  UNL1        0.1150
     18 N         144.2635  139.8218  162.2033 N.am    1  UNL1       -0.2744
     19 C         144.1768  140.7870  161.0583 C.3     1  UNL1        0.1150
     20 C         144.7881  140.2795  163.5319 C.2     1  UNL1        0.2488
     21 O         144.8749  139.3144  164.6769 O.2     1  UNL1       -0.2728
@<TRIPOS>BOND
     1    17    18    1
     2    18    19    1
     3    18    20   am
     4    20    21    2
     5    20    16    1
     6    16     1    1
     7     1     2   ar
     8     2     3   ar
     9     3     4   ar
    10     4     5   ar
    11     5     6   ar
    12     6     7   ar
    13     7    10    1
    14    10    11   ar
    15    11    12   ar
    16    12    13   ar
    17    13    14    1
    18    13    15   ar
    19     7     8   ar
    20     8     9   ar
    21     9     1   ar
    22     9     4   ar
    23    15    10   ar
