@<TRIPOS>MOLECULE
*****
 30 32 0 0 0
SMALL
GASTEIGER

@<TRIPOS>ATOM
      1 C         142.0576  140.4980  161.7861 C.ar    1  UNL1        0.1303
      2 N         141.2902  139.8687  162.9108 N.ar    1  UNL1       -0.2097
      3 C         140.9844  138.4005  162.8809 C.ar    1  UNL1        0.2209
      4 N         141.4461  137.5616  161.7263 N.ar    1  UNL1       -0.2096
      5 C         142.2135  138.1909  160.6016 C.ar    1  UNL1        0.1330
      6 C         142.5193  139.6591  160.6315 C.ar    1  UNL1        0.1783
      7 F         143.2867  140.2884  159.5068 F       1  UNL1       -0.2009
      8 C         143.9600  145.2026  163.2449 C.3     1  UNL1        0.0718
      9 C         143.2379  144.1287  162.4866 C.ar    1  UNL1        0.1208
     10 N         142.4302  144.3223  161.2375 N.ar    1  UNL1       -0.2293
     11 C         141.8897  142.9858  160.8231 C.ar    1  UNL1        0.1189
     12 C         142.3634  141.9662  161.8160 C.ar    1  UNL1        0.1003
     13 N         143.1966  142.6725  162.8441 N.ar    1  UNL1       -0.3155
     14 C         143.8702  142.0347  164.0228 C.3     1  UNL1        0.0868
     15 C         143.2363  142.1096  165.3802 C.3     1  UNL1        0.0245
     16 C         145.1779  141.3218  163.8441 C.3     1  UNL1        0.0245
     17 N         140.2169  137.7711  164.0057 N.pl3   1  UNL1       -0.2825
     18 H         139.7958  136.8899  163.8817 H       1  UNL1        0.1551
     19 C         140.0912  138.4844  165.3192 C.ar    1  UNL1        0.0527
     20 C         138.7351  138.7371  165.9087 C.ar    1  UNL1        0.0150
     21 C         138.6094  139.4504  167.2222 C.ar    1  UNL1        0.0080
     22 C         139.8397  139.9110  167.9463 C.ar    1  UNL1        0.0811
     23 C         141.1956  139.6583  167.3569 C.ar    1  UNL1        0.1457
     24 F         142.4260  140.1189  168.0810 F       1  UNL1       -0.2040
     25 C         141.3214  138.9450  166.0433 C.ar    1  UNL1        0.0444
     26 C         139.7139  140.6243  169.2599 C.2     1  UNL1        0.2513
     27 O         139.2692  139.8748  170.4807 O.2     1  UNL1       -0.2698
     28 N         140.0330  142.0871  169.3525 N.am    1  UNL1       -0.2725
     29 C         139.9072  142.8004  170.6661 C.3     1  UNL1        0.1152
     30 C         140.4777  142.8365  168.1317 C.3     1  UNL1        0.1152
@<TRIPOS>BOND
     1     8     9    1
     2     9    10   ar
     3    10    11   ar
     4    11    12   ar
     5    12     1    1
     6     1     2   ar
     7     2     3   ar
     8     3    17    1
     9    17    19    1
    10    19    20   ar
    11    20    21   ar
    12    21    22   ar
    13    22    26    1
    14    26    27    2
    15    26    28   am
    16    28    29    1
    17    28    30    1
    18    22    23   ar
    19    23    24    1
    20    23    25   ar
    21     3     4   ar
    22     4     5   ar
    23     5     6   ar
    24     6     7    1
    25    12    13   ar
    26    13    14    1
    27    14    15    1
    28    14    16    1
    29    13     9   ar
    30     6     1   ar
    31    25    19   ar
    32    17    18    1
@<TRIPOS>MOLECULE
*****
 30 32 0 0 0
SMALL
GASTEIGER

@<TRIPOS>ATOM
      1 C         141.9976  141.3311  161.8349 C.ar    1  UNL1        0.1303
      2 N         141.5830  140.4412  162.9689 N.ar    1  UNL1       -0.2097
      3 C         142.4106  139.2411  163.3217 C.ar    1  UNL1        0.2209
      4 N         143.6530  138.9308  162.5405 N.ar    1  UNL1       -0.2096
      5 C         144.0676  139.8207  161.4064 C.ar    1  UNL1        0.1330
      6 C         143.2400  141.0208  161.0536 C.ar    1  UNL1        0.1783
      7 F         143.6546  141.9108  159.9195 F       1  UNL1       -0.2009
      8 C         139.7702  146.1161  161.9875 C.3     1  UNL1        0.0718
      9 C         140.1461  144.7308  161.5522 C.ar    1  UNL1        0.1208
     10 N         139.6466  144.0258  160.3260 N.ar    1  UNL1       -0.2293
     11 C         140.2793  142.6665  160.2826 C.ar    1  UNL1        0.1189
     12 C         141.1700  142.5314  161.4820 C.ar    1  UNL1        0.1003
     13 N         141.0876  143.8072  162.2666 N.ar    1  UNL1       -0.3155
     14 C         141.8185  144.1067  163.5418 C.3     1  UNL1        0.0868
     15 C         143.0516  144.9603  163.5168 C.3     1  UNL1        0.0245
     16 C         141.3162  143.5526  164.8421 C.3     1  UNL1        0.0245
     17 N         141.9960  138.3511  164.4558 N.pl3   1  UNL1       -0.2825
     18 H         142.0551  137.3730  164.3610 H       1  UNL1        0.1551
     19 C         141.4913  138.9515  165.7344 C.ar    1  UNL1        0.0527
     20 C         140.0297  139.2458  165.8992 C.ar    1  UNL1        0.0150
     21 C         139.5250  139.8462  167.1778 C.ar    1  UNL1        0.0080
     22 C         140.4820  140.1523  168.2917 C.ar    1  UNL1        0.0811
     23 C         141.9436  139.8580  168.1268 C.ar    1  UNL1        0.1457
     24 F         142.9006  140.1642  169.2407 F       1  UNL1       -0.2040
     25 C         142.4482  139.2576  166.8482 C.ar    1  UNL1        0.0444
     26 C         139.9774  140.7527  169.5703 C.2     1  UNL1        0.2513
     27 O         139.4427  139.8660  170.6555 O.2     1  UNL1       -0.2698
     28 N         140.0074  142.2400  169.7636 N.am    1  UNL1       -0.2725
     29 C         139.5027  142.8404  171.0422 C.3     1  UNL1        0.1152
     30 C         140.5420  143.1267  168.6784 C.3     1  UNL1        0.1152
@<TRIPOS>BOND
     1     8     9    1
     2     9    10   ar
     3    10    11   ar
     4    11    12   ar
     5    12     1    1
     6     1     2   ar
     7     2     3   ar
     8     3    17    1
     9    17    19    1
    10    19    20   ar
    11    20    21   ar
    12    21    22   ar
    13    22    26    1
    14    26    27    2
    15    26    28   am
    16    28    29    1
    17    28    30    1
    18    22    23   ar
    19    23    24    1
    20    23    25   ar
    21     3     4   ar
    22     4     5   ar
    23     5     6   ar
    24     6     7    1
    25    12    13   ar
    26    13    14    1
    27    14    15    1
    28    14    16    1
    29    13     9   ar
    30     6     1   ar
    31    25    19   ar
    32    17    18    1
@<TRIPOS>MOLECULE
*****
 30 32 0 0 0
SMALL
GASTEIGER

@<TRIPOS>ATOM
      1 C         140.5939  140.8355  161.4359 C.ar    1  UNL1        0.1303
      2 N         141.0907  140.2582  162.7281 N.ar    1  UNL1       -0.2097
      3 C         141.0091  138.7801  162.9697 C.ar    1  UNL1        0.2209
      4 N         140.4307  137.8792  161.9191 N.ar    1  UNL1       -0.2096
      5 C         139.9339  138.4565  160.6269 C.ar    1  UNL1        0.1330
      6 C         140.0155  139.9346  160.3853 C.ar    1  UNL1        0.1783
      7 F         139.5186  140.5119  159.0930 F       1  UNL1       -0.2009
      8 C         139.8181  146.0420  161.8502 C.3     1  UNL1        0.0718
      9 C         140.3188  144.7069  161.3847 C.ar    1  UNL1        0.1208
     10 N         141.2830  144.4699  160.2603 N.ar    1  UNL1       -0.2293
     11 C         141.5033  142.9908  160.1426 C.ar    1  UNL1        0.1189
     12 C         140.6754  142.3137  161.1943 C.ar    1  UNL1        0.1003
     13 N         139.9434  143.3743  161.9619 N.ar    1  UNL1       -0.3155
     14 C         139.0013  143.1429  163.1060 C.3     1  UNL1        0.0868
     15 C         139.4453  143.4215  164.5114 C.3     1  UNL1        0.0245
     16 C         137.6150  142.6329  162.8447 C.3     1  UNL1        0.0245
     17 N         141.5060  138.2028  164.2620 N.pl3   1  UNL1       -0.2825
     18 H         142.0928  137.4122  164.2546 H       1  UNL1        0.1551
     19 C         141.1088  138.8299  165.5654 C.ar    1  UNL1        0.0527
     20 C         139.6633  139.1074  165.8545 C.ar    1  UNL1        0.0150
     21 C         139.2661  139.7346  167.1580 C.ar    1  UNL1        0.0080
     22 C         140.3145  140.0842  168.1723 C.ar    1  UNL1        0.0811
     23 C         141.7599  139.8066  167.8832 C.ar    1  UNL1        0.1457
     24 F         142.8083  140.1562  168.8975 F       1  UNL1       -0.2040
     25 C         142.1571  139.1795  166.5797 C.ar    1  UNL1        0.0444
     26 C         139.9173  140.7113  169.4757 C.2     1  UNL1        0.2513
     27 O         139.4132  139.8533  170.5980 O.2     1  UNL1       -0.2698
     28 N         140.0244  142.1965  169.6569 N.am    1  UNL1       -0.2725
     29 C         139.6272  142.8237  170.9603 C.3     1  UNL1        0.1152
     30 C         140.5286  143.0545  168.5346 C.3     1  UNL1        0.1152
@<TRIPOS>BOND
     1     8     9    1
     2     9    10   ar
     3    10    11   ar
     4    11    12   ar
     5    12     1    1
     6     1     2   ar
     7     2     3   ar
     8     3    17    1
     9    17    19    1
    10    19    20   ar
    11    20    21   ar
    12    21    22   ar
    13    22    26    1
    14    26    27    2
    15    26    28   am
    16    28    29    1
    17    28    30    1
    18    22    23   ar
    19    23    24    1
    20    23    25   ar
    21     3     4   ar
    22     4     5   ar
    23     5     6   ar
    24     6     7    1
    25    12    13   ar
    26    13    14    1
    27    14    15    1
    28    14    16    1
    29    13     9   ar
    30     6     1   ar
    31    25    19   ar
    32    17    18    1
@<TRIPOS>MOLECULE
*****
 30 32 0 0 0
SMALL
GASTEIGER

@<TRIPOS>ATOM
      1 C         140.3312  140.7537  161.0944 C.ar    1  UNL1        0.1303
      2 N         140.4356  139.9712  162.3699 N.ar    1  UNL1       -0.2097
      3 C         140.1262  138.5036  162.3768 C.ar    1  UNL1        0.2209
      4 N         139.7124  137.8183  161.1083 N.ar    1  UNL1       -0.2096
      5 C         139.6080  138.6007  159.8328 C.ar    1  UNL1        0.1330
      6 C         139.9174  140.0684  159.8259 C.ar    1  UNL1        0.1783
      7 F         139.8131  140.8509  158.5504 F       1  UNL1       -0.2009
      8 C         140.3583  145.8861  162.3348 C.3     1  UNL1        0.0718
      9 C         140.6531  144.5806  161.6576 C.ar    1  UNL1        0.1208
     10 N         141.5805  144.3795  160.4959 N.ar    1  UNL1       -0.2293
     11 C         141.5728  142.9215  160.1435 C.ar    1  UNL1        0.1189
     12 C         140.6407  142.2214  161.0874 C.ar    1  UNL1        0.1003
     13 N         140.0723  143.2468  162.0232 N.ar    1  UNL1       -0.3155
     14 C         139.0946  142.9844  163.1301 C.3     1  UNL1        0.0868
     15 C         139.5827  142.8228  164.5392 C.3     1  UNL1        0.0245
     16 C         137.6288  142.8837  162.8280 C.3     1  UNL1        0.0245
     17 N         140.2305  137.7210  163.6523 N.pl3   1  UNL1       -0.2825
     18 H         139.8955  136.7961  163.6912 H       1  UNL1        0.1551
     19 C         140.8454  138.3478  164.8685 C.ar    1  UNL1        0.0527
     20 C         142.3064  138.1597  165.1518 C.ar    1  UNL1        0.0150
     21 C         142.9213  138.7865  166.3680 C.ar    1  UNL1        0.0080
     22 C         142.0751  139.6013  167.3009 C.ar    1  UNL1        0.0811
     23 C         140.6142  139.7893  167.0176 C.ar    1  UNL1        0.1457
     24 F         139.7680  140.6041  167.9505 F       1  UNL1       -0.2040
     25 C         139.9993  139.1626  165.8014 C.ar    1  UNL1        0.0444
     26 C         142.6900  140.2281  168.5171 C.2     1  UNL1        0.2513
     27 O         142.8562  139.4241  169.7724 O.2     1  UNL1       -0.2698
     28 N         143.1386  141.6589  168.4779 N.am    1  UNL1       -0.2725
     29 C         143.7535  142.2857  169.6941 C.3     1  UNL1        0.1152
     30 C         142.9724  142.4629  167.2226 C.3     1  UNL1        0.1152
@<TRIPOS>BOND
     1     8     9    1
     2     9    10   ar
     3    10    11   ar
     4    11    12   ar
     5    12     1    1
     6     1     2   ar
     7     2     3   ar
     8     3    17    1
     9    17    19    1
    10    19    20   ar
    11    20    21   ar
    12    21    22   ar
    13    22    26    1
    14    26    27    2
    15    26    28   am
    16    28    29    1
    17    28    30    1
    18    22    23   ar
    19    23    24    1
    20    23    25   ar
    21     3     4   ar
    22     4     5   ar
    23     5     6   ar
    24     6     7    1
    25    12    13   ar
    26    13    14    1
    27    14    15    1
    28    14    16    1
    29    13     9   ar
    30     6     1   ar
    31    25    19   ar
    32    17    18    1
@<TRIPOS>MOLECULE
*****
 30 32 0 0 0
SMALL
GASTEIGER

@<TRIPOS>ATOM
      1 C         140.3166  140.9951  165.9832 C.ar    1  UNL1        0.1303
      2 N         140.6215  142.3799  165.4943 N.ar    1  UNL1       -0.2097
      3 C         139.6829  143.0637  164.5448 C.ar    1  UNL1        0.2209
      4 N         138.4394  142.3626  164.0843 N.ar    1  UNL1       -0.2096
      5 C         138.1345  140.9777  164.5732 C.ar    1  UNL1        0.1330
      6 C         139.0731  140.2939  165.5226 C.ar    1  UNL1        0.1783
      7 F         138.7682  138.9090  166.0116 F       1  UNL1       -0.2009
      8 C         142.6778  139.3852  170.4232 C.3     1  UNL1        0.0718
      9 C         142.3405  139.5713  168.9736 C.ar    1  UNL1        0.1208
     10 N         143.0585  138.9467  167.8140 N.ar    1  UNL1       -0.2293
     11 C         142.3877  139.4040  166.5527 C.ar    1  UNL1        0.1189
     12 C         141.2552  140.3112  166.9327 C.ar    1  UNL1        0.1003
     13 N         141.2261  140.4146  168.4288 N.ar    1  UNL1       -0.3155
     14 C         140.2532  141.2200  169.2382 C.3     1  UNL1        0.0868
     15 C         140.4372  142.7024  169.3743 C.3     1  UNL1        0.0245
     16 C         139.0964  140.5429  169.9114 C.3     1  UNL1        0.0245
     17 N         139.9878  144.4487  164.0559 N.pl3   1  UNL1       -0.2825
     18 H         139.9568  145.2091  164.6803 H       1  UNL1        0.1551
     19 C         140.3400  144.6749  162.6154 C.ar    1  UNL1        0.0527
     20 C         139.6926  145.7919  161.8516 C.ar    1  UNL1        0.0150
     21 C         140.0448  146.0181  160.4112 C.ar    1  UNL1        0.0080
     22 C         141.0442  145.1274  159.7346 C.ar    1  UNL1        0.0811
     23 C         141.6915  144.0105  160.4984 C.ar    1  UNL1        0.1457
     24 F         142.6910  143.1197  159.8218 F       1  UNL1       -0.2040
     25 C         141.3394  143.7842  161.9388 C.ar    1  UNL1        0.0444
     26 C         141.3964  145.3536  158.2942 C.2     1  UNL1        0.2513
     27 O         142.5369  146.2589  157.9341 O.2     1  UNL1       -0.2698
     28 N         140.6079  144.6745  157.2137 N.am    1  UNL1       -0.2725
     29 C         140.9600  144.9008  155.7733 C.3     1  UNL1        0.1152
     30 C         139.4674  143.7693  157.5738 C.3     1  UNL1        0.1152
@<TRIPOS>BOND
     1     8     9    1
     2     9    10   ar
     3    10    11   ar
     4    11    12   ar
     5    12     1    1
     6     1     2   ar
     7     2     3   ar
     8     3    17    1
     9    17    19    1
    10    19    20   ar
    11    20    21   ar
    12    21    22   ar
    13    22    26    1
    14    26    27    2
    15    26    28   am
    16    28    29    1
    17    28    30    1
    18    22    23   ar
    19    23    24    1
    20    23    25   ar
    21     3     4   ar
    22     4     5   ar
    23     5     6   ar
    24     6     7    1
    25    12    13   ar
    26    13    14    1
    27    14    15    1
    28    14    16    1
    29    13     9   ar
    30     6     1   ar
    31    25    19   ar
    32    17    18    1
@<TRIPOS>MOLECULE
*****
 30 32 0 0 0
SMALL
GASTEIGER

@<TRIPOS>ATOM
      1 C         142.1428  140.9017  160.4160 C.ar    1  UNL1        0.1303
      2 N         141.1126  140.0985  161.1531 N.ar    1  UNL1       -0.2097
      3 C         140.2389  139.1340  160.4072 C.ar    1  UNL1        0.2209
      4 N         140.3954  138.9728  158.9241 N.ar    1  UNL1       -0.2096
      5 C         141.4257  139.7760  158.1870 C.ar    1  UNL1        0.1330
      6 C         142.2994  140.7405  158.9329 C.ar    1  UNL1        0.1783
      7 F         143.3297  141.5438  158.1958 F       1  UNL1       -0.2009
      8 C         143.7585  145.0322  163.2813 C.3     1  UNL1        0.0718
      9 C         143.7591  143.7648  162.4790 C.ar    1  UNL1        0.1208
     10 N         144.9628  142.9360  162.1407 N.ar    1  UNL1       -0.2293
     11 C         144.5038  141.7627  161.3267 C.ar    1  UNL1        0.1189
     12 C         143.0165  141.8662  161.1620 C.ar    1  UNL1        0.1003
     13 N         142.5563  143.1036  161.8741 N.ar    1  UNL1       -0.3155
     14 C         141.1416  143.5937  161.9653 C.3     1  UNL1        0.0868
     15 C         140.6028  144.5282  160.9230 C.3     1  UNL1        0.0245
     16 C         140.2655  143.1494  163.0989 C.3     1  UNL1        0.0245
     17 N         139.2086  138.3308  161.1443 N.pl3   1  UNL1       -0.2825
     18 H         138.6558  137.6759  160.6597 H       1  UNL1        0.1551
     19 C         139.0205  138.5253  162.6197 C.ar    1  UNL1        0.0527
     20 C         139.4098  137.4366  163.5754 C.ar    1  UNL1        0.0150
     21 C         139.2217  137.6311  165.0508 C.ar    1  UNL1        0.0080
     22 C         138.6444  138.9144  165.5705 C.ar    1  UNL1        0.0811
     23 C         138.2552  140.0030  164.6148 C.ar    1  UNL1        0.1457
     24 F         137.6779  141.2863  165.1345 F       1  UNL1       -0.2040
     25 C         138.4432  139.8085  163.1394 C.ar    1  UNL1        0.0444
     26 C         138.4564  139.1090  167.0459 C.2     1  UNL1        0.2513
     27 O         137.3318  138.4159  167.7564 O.2     1  UNL1       -0.2698
     28 N         139.3930  139.9966  167.8107 N.am    1  UNL1       -0.2725
     29 C         139.2049  140.1912  169.2861 C.3     1  UNL1        0.1152
     30 C         140.5175  140.6897  167.1001 C.3     1  UNL1        0.1152
@<TRIPOS>BOND
     1     8     9    1
     2     9    10   ar
     3    10    11   ar
     4    11    12   ar
     5    12     1    1
     6     1     2   ar
     7     2     3   ar
     8     3    17    1
     9    17    19    1
    10    19    20   ar
    11    20    21   ar
    12    21    22   ar
    13    22    26    1
    14    26    27    2
    15    26    28   am
    16    28    29    1
    17    28    30    1
    18    22    23   ar
    19    23    24    1
    20    23    25   ar
    21     3     4   ar
    22     4     5   ar
    23     5     6   ar
    24     6     7    1
    25    12    13   ar
    26    13    14    1
    27    14    15    1
    28    14    16    1
    29    13     9   ar
    30     6     1   ar
    31    25    19   ar
    32    17    18    1
@<TRIPOS>MOLECULE
*****
 30 32 0 0 0
SMALL
GASTEIGER

@<TRIPOS>ATOM
      1 C         142.7232  140.2872  165.2221 C.ar    1  UNL1        0.1303
      2 N         142.9348  141.5094  164.3787 N.ar    1  UNL1       -0.2097
      3 C         144.2014  141.6668  163.5907 C.ar    1  UNL1        0.2209
      4 N         145.2564  140.6019  163.6461 N.ar    1  UNL1       -0.2096
      5 C         145.0448  139.3797  164.4895 C.ar    1  UNL1        0.1330
      6 C         143.7782  139.2223  165.2774 C.ar    1  UNL1        0.1783
      7 F         143.5666  138.0000  166.1209 F       1  UNL1       -0.2009
      8 C         137.9252  138.7001  166.7520 C.3     1  UNL1        0.0718
      9 C         139.2512  139.4002  166.7133 C.ar    1  UNL1        0.1208
     10 N         139.7638  140.3747  167.7320 N.ar    1  UNL1       -0.2293
     11 C         141.1268  140.8255  167.2974 C.ar    1  UNL1        0.1189
     12 C         141.4566  140.1297  166.0101 C.ar    1  UNL1        0.1003
     13 N         140.2974  139.2488  165.6491 N.ar    1  UNL1       -0.3155
     14 C         140.2012  138.3708  164.4368 C.3     1  UNL1        0.0868
     15 C         140.9347  137.0629  164.3979 C.3     1  UNL1        0.0245
     16 C         139.3716  138.8005  163.2633 C.3     1  UNL1        0.0245
     17 N         144.4131  142.8891  162.7473 N.pl3   1  UNL1       -0.2825
     18 H         145.2125  143.4477  162.8819 H       1  UNL1        0.1551
     19 C         143.4067  143.2602  161.6987 C.ar    1  UNL1        0.0527
     20 C         143.3714  142.5166  160.3965 C.ar    1  UNL1        0.0150
     21 C         142.3650  142.8877  159.3479 C.ar    1  UNL1        0.0080
     22 C         141.3939  144.0025  159.6017 C.ar    1  UNL1        0.0811
     23 C         141.4292  144.7460  160.9039 C.ar    1  UNL1        0.1457
     24 F         140.4580  145.8607  161.1577 F       1  UNL1       -0.2040
     25 C         142.4355  144.3749  161.9524 C.ar    1  UNL1        0.0444
     26 C         140.3875  144.3736  158.5531 C.2     1  UNL1        0.2513
     27 O         139.0230  143.7508  158.5693 O.2     1  UNL1       -0.2698
     28 N         140.7456  145.3676  157.4883 N.am    1  UNL1       -0.2725
     29 C         139.7392  145.7388  156.4398 C.3     1  UNL1        0.1152
     30 C         142.1100  145.9905  157.4721 C.3     1  UNL1        0.1152
@<TRIPOS>BOND
     1     8     9    1
     2     9    10   ar
     3    10    11   ar
     4    11    12   ar
     5    12     1    1
     6     1     2   ar
     7     2     3   ar
     8     3    17    1
     9    17    19    1
    10    19    20   ar
    11    20    21   ar
    12    21    22   ar
    13    22    26    1
    14    26    27    2
    15    26    28   am
    16    28    29    1
    17    28    30    1
    18    22    23   ar
    19    23    24    1
    20    23    25   ar
    21     3     4   ar
    22     4     5   ar
    23     5     6   ar
    24     6     7    1
    25    12    13   ar
    26    13    14    1
    27    14    15    1
    28    14    16    1
    29    13     9   ar
    30     6     1   ar
    31    25    19   ar
    32    17    18    1
@<TRIPOS>MOLECULE
*****
 30 32 0 0 0
SMALL
GASTEIGER

@<TRIPOS>ATOM
      1 C         140.9091  140.9432  159.7598 C.ar    1  UNL1        0.1303
      2 N         140.1697  140.0521  160.7133 N.ar    1  UNL1       -0.2097
      3 C         139.3815  138.8869  160.1928 C.ar    1  UNL1        0.2209
      4 N         139.3325  138.6129  158.7189 N.ar    1  UNL1       -0.2096
      5 C         140.0719  139.5040  157.7654 C.ar    1  UNL1        0.1330
      6 C         140.8601  140.6692  158.2859 C.ar    1  UNL1        0.1783
      7 F         141.5996  141.5605  157.3324 F       1  UNL1       -0.2009
      8 C         144.3673  143.8450  162.4988 C.3     1  UNL1        0.0718
      9 C         143.2870  143.4423  161.5393 C.ar    1  UNL1        0.1208
     10 N         142.5340  144.3609  160.6231 N.ar    1  UNL1       -0.2293
     11 C         141.5516  143.5365  159.8450 C.ar    1  UNL1        0.1189
     12 C         141.6974  142.1085  160.2803 C.ar    1  UNL1        0.1003
     13 N         142.7699  142.0502  161.3274 N.ar    1  UNL1       -0.3155
     14 C         143.2424  140.8166  162.0378 C.3     1  UNL1        0.0868
     15 C         142.7333  140.5017  163.4132 C.3     1  UNL1        0.0245
     16 C         144.2240  139.8977  161.3729 C.3     1  UNL1        0.0245
     17 N         138.6420  137.9957  161.1463 N.pl3   1  UNL1       -0.2825
     18 H         138.1583  137.2074  160.8088 H       1  UNL1        0.1551
     19 C         138.6398  138.3054  162.6140 C.ar    1  UNL1        0.0527
     20 C         139.0803  137.2651  163.6007 C.ar    1  UNL1        0.0150
     21 C         139.0781  137.5748  165.0684 C.ar    1  UNL1        0.0080
     22 C         138.6353  138.9249  165.5493 C.ar    1  UNL1        0.0811
     23 C         138.1947  139.9652  164.5625 C.ar    1  UNL1        0.1457
     24 F         137.7519  141.3153  165.0434 F       1  UNL1       -0.2040
     25 C         138.1970  139.6555  163.0949 C.ar    1  UNL1        0.0444
     26 C         138.6330  139.2347  167.0170 C.2     1  UNL1        0.2513
     27 O         137.5634  138.6664  167.9018 O.2     1  UNL1       -0.2698
     28 N         139.7004  140.1128  167.5998 N.am    1  UNL1       -0.2725
     29 C         139.6981  140.4226  169.0675 C.3     1  UNL1        0.1152
     30 C         140.7700  140.6811  166.7150 C.3     1  UNL1        0.1152
@<TRIPOS>BOND
     1     8     9    1
     2     9    10   ar
     3    10    11   ar
     4    11    12   ar
     5    12     1    1
     6     1     2   ar
     7     2     3   ar
     8     3    17    1
     9    17    19    1
    10    19    20   ar
    11    20    21   ar
    12    21    22   ar
    13    22    26    1
    14    26    27    2
    15    26    28   am
    16    28    29    1
    17    28    30    1
    18    22    23   ar
    19    23    24    1
    20    23    25   ar
    21     3     4   ar
    22     4     5   ar
    23     5     6   ar
    24     6     7    1
    25    12    13   ar
    26    13    14    1
    27    14    15    1
    28    14    16    1
    29    13     9   ar
    30     6     1   ar
    31    25    19   ar
    32    17    18    1
@<TRIPOS>MOLECULE
*****
 30 32 0 0 0
SMALL
GASTEIGER

@<TRIPOS>ATOM
      1 C         140.8311  141.4725  159.4795 C.ar    1  UNL1        0.1303
      2 N         141.6551  140.4742  160.2373 N.ar    1  UNL1       -0.2097
      3 C         141.5943  139.0205  159.8728 C.ar    1  UNL1        0.2209
      4 N         140.7096  138.5651  158.7503 N.ar    1  UNL1       -0.2096
      5 C         139.8856  139.5634  157.9925 C.ar    1  UNL1        0.1330
      6 C         139.9463  141.0171  158.3571 C.ar    1  UNL1        0.1783
      7 F         139.1223  142.0155  157.5992 F       1  UNL1       -0.2009
      8 C         140.1111  146.0487  162.0137 C.3     1  UNL1        0.0718
      9 C         140.5608  145.0297  161.0089 C.ar    1  UNL1        0.1208
     10 N         141.4096  145.2971  159.8013 N.ar    1  UNL1       -0.2293
     11 C         141.6141  143.9972  159.0815 C.ar    1  UNL1        0.1189
     12 C         140.8918  142.9264  159.8441 C.ar    1  UNL1        0.1003
     13 N         140.2408  143.5645  161.0353 N.ar    1  UNL1       -0.3155
     14 C         139.4149  142.8610  162.0711 C.3     1  UNL1        0.0868
     15 C         137.9176  142.9197  162.0032 C.3     1  UNL1        0.0245
     16 C         140.0863  142.0988  163.1749 C.3     1  UNL1        0.0245
     17 N         142.4183  138.0221  160.6306 N.pl3   1  UNL1       -0.2825
     18 H         142.8304  137.2635  160.1574 H       1  UNL1        0.1551
     19 C         142.6145  138.1797  162.1094 C.ar    1  UNL1        0.0527
     20 C         141.5815  137.6565  163.0629 C.ar    1  UNL1        0.0150
     21 C         141.7776  137.8141  164.5417 C.ar    1  UNL1        0.0080
     22 C         143.0068  138.4948  165.0668 C.ar    1  UNL1        0.0811
     23 C         144.0398  139.0179  164.1133 C.ar    1  UNL1        0.1457
     24 F         145.2690  139.6986  164.6385 F       1  UNL1       -0.2040
     25 C         143.8436  138.8603  162.6346 C.ar    1  UNL1        0.0444
     26 C         143.2030  138.6524  166.5456 C.2     1  UNL1        0.2513
     27 O         144.1240  137.7261  167.2829 O.2     1  UNL1       -0.2698
     28 N         142.4781  139.7363  167.2870 N.am    1  UNL1       -0.2725
     29 C         142.6743  139.8939  168.7658 C.3     1  UNL1        0.1152
     30 C         141.5571  140.6626  166.5497 C.3     1  UNL1        0.1152
@<TRIPOS>BOND
     1     8     9    1
     2     9    10   ar
     3    10    11   ar
     4    11    12   ar
     5    12     1    1
     6     1     2   ar
     7     2     3   ar
     8     3    17    1
     9    17    19    1
    10    19    20   ar
    11    20    21   ar
    12    21    22   ar
    13    22    26    1
    14    26    27    2
    15    26    28   am
    16    28    29    1
    17    28    30    1
    18    22    23   ar
    19    23    24    1
    20    23    25   ar
    21     3     4   ar
    22     4     5   ar
    23     5     6   ar
    24     6     7    1
    25    12    13   ar
    26    13    14    1
    27    14    15    1
    28    14    16    1
    29    13     9   ar
    30     6     1   ar
    31    25    19   ar
    32    17    18    1
