@<TRIPOS>MOLECULE
*****
 52 55 0 0 0
SMALL
GASTEIGER

@<TRIPOS>ATOM
      1 C         142.3163  140.3670  165.3509 C.3     1  UNL1        0.0990
      2 C         142.4203  139.8722  163.9387 C.ar    1  UNL1        0.0031
      3 C         143.4945  138.8947  163.5637 C.ar    1  UNL1        0.0274
      4 C         143.5985  138.3999  162.1514 C.ar    1  UNL1        0.1429
      5 F         144.6727  137.4224  161.7764 F       1  UNL1       -0.2041
      6 C         142.6283  138.8826  161.1143 C.ar    1  UNL1        0.0667
      7 C         141.5541  139.8600  161.4893 C.ar    1  UNL1        0.1461
      8 C         141.4501  140.3549  162.9014 C.ar    1  UNL1        0.0348
      9 O         140.5839  140.3427  160.4520 O.3     1  UNL1       -0.4263
     10 C         139.1150  140.3708  160.7545 C.3     1  UNL1        0.4723
     11 F         139.0975  138.8719  160.8090 F       1  UNL1       -0.1579
     12 F         139.1325  141.8697  160.6999 F       1  UNL1       -0.1579
     13 C         137.6461  140.3990  161.0569 C.3     1  UNL1        0.4202
     14 F         137.1377  141.1754  162.2353 F       1  UNL1       -0.1876
     15 F         136.6855  139.6506  160.1809 F       1  UNL1       -0.1876
     16 C         142.7021  141.7437  164.8968 C.ar    1  UNL1        0.0010
     17 C         144.1496  142.1013  164.7332 C.ar    1  UNL1        0.0001
     18 C         144.5355  143.4778  164.2792 C.ar    1  UNL1        0.0325
     19 C         143.4738  144.4968  163.9889 C.ar    1  UNL1        0.1738
     20 F         143.8596  145.8735  163.5348 F       1  UNL1       -0.2010
     21 C         142.0262  144.1393  164.1525 C.ar    1  UNL1        0.1653
     22 C         141.6404  142.7627  164.6065 C.ar    1  UNL1        0.0368
     23 O         140.9645  145.1583  163.8621 O.3     1  UNL1       -0.4769
     24 C         139.5178  144.8075  164.0462 C.3     1  UNL1        0.1662
     25 C         138.3422  144.5746  164.9483 C.3     1  UNL1        0.0472
     26 C         138.1876  144.4328  163.4631 C.3     1  UNL1        0.0472
     27 C         142.9111  140.1273  167.8686 C.2     1  UNL1        0.2398
     28 O         143.3692  139.4755  167.8973 O.2     1  UNL1       -0.2736
     29 N         142.2123  140.8619  166.7630 N.am    1  UNL1       -0.2991
     30 H         141.6854  141.6688  166.9643 H       1  UNL1        0.1500
     31 N         143.3783  139.6621  170.2818 N.3     1  UNL1       -0.3126
     32 C         142.8071  140.6221  169.2807 C.3     1  UNL1        0.1699
     33 H         143.7356  138.8386  169.7975 H       1  UNL1        0.1193
     34 H         142.6494  139.3812  170.9377 H       1  UNL1        0.1193
     35 C         142.1794  141.9547  169.5642 C.3     1  UNL1        0.2849
     36 O         143.1812  142.6177  168.6659 O.3     1  UNL1       -0.3715
     37 H         143.7798  141.9481  168.2994 H       1  UNL1        0.2109
     38 C         141.5518  143.2873  169.8477 C.3     1  UNL1        0.4292
     39 F         140.9242  144.6198  170.1311 F       1  UNL1       -0.1672
     40 F         142.8256  143.7505  170.4904 F       1  UNL1       -0.1672
     41 F         140.2111  142.9899  169.2444 F       1  UNL1       -0.1672
     42 C         141.1777  141.2918  170.4625 C.3     1  UNL1        0.4292
     43 F         140.1758  140.6289  171.3609 F       1  UNL1       -0.1672
     44 F         140.4724  140.5032  169.3994 F       1  UNL1       -0.1672
     45 F         141.6388  141.9190  171.7448 F       1  UNL1       -0.1672
     46 C         141.9305  138.9905  165.8048 C.3     1  UNL1        0.0528
     47 C         140.4824  138.6253  165.9453 C.ar    1  UNL1       -0.0199
     48 C         139.6018  139.3972  166.8827 C.ar    1  UNL1       -0.0042
     49 C         138.1538  139.0320  167.0231 C.ar    1  UNL1       -0.0003
     50 C         137.5863  137.8951  166.2261 C.ar    1  UNL1       -0.0000
     51 C         138.4669  137.1232  165.2886 C.ar    1  UNL1       -0.0003
     52 C         139.9149  137.4884  165.1482 C.ar    1  UNL1       -0.0042
@<TRIPOS>BOND
     1    31    32    1
     2    32    27    1
     3    27    28    2
     4    27    29   am
     5    29     1    1
     6     1    46    1
     7    46    47    1
     8    47    48   ar
     9    48    49   ar
    10    49    50   ar
    11    50    51   ar
    12    51    52   ar
    13     1     2    1
    14     2     3   ar
    15     3     4   ar
    16     4     5    1
    17     4     6   ar
    18     6     7   ar
    19     7     9    1
    20     9    10    1
    21    10    11    1
    22    10    12    1
    23    10    13    1
    24    13    14    1
    25    13    15    1
    26     7     8   ar
    27     1    16    1
    28    16    17   ar
    29    17    18   ar
    30    18    19   ar
    31    19    20    1
    32    19    21   ar
    33    21    23    1
    34    23    24    1
    35    24    25    1
    36    25    26    1
    37    21    22   ar
    38    32    35    1
    39    35    36    1
    40    35    38    1
    41    38    39    1
    42    38    40    1
    43    38    41    1
    44    35    42    1
    45    42    43    1
    46    42    44    1
    47    42    45    1
    48    52    47   ar
    49     8     2   ar
    50    22    16   ar
    51    26    24    1
    52    31    33    1
    53    31    34    1
    54    29    30    1
    55    36    37    1
@<TRIPOS>MOLECULE
*****
 52 55 0 0 0
SMALL
GASTEIGER

@<TRIPOS>ATOM
      1 C         142.5649  140.2185  160.4050 C.3     1  UNL1        0.0990
      2 C         142.1668  139.4116  159.2048 C.ar    1  UNL1        0.0031
      3 C         140.7634  139.4890  158.6810 C.ar    1  UNL1        0.0274
      4 C         140.3653  138.6821  157.4808 C.ar    1  UNL1        0.1429
      5 F         138.9618  138.7595  156.9569 F       1  UNL1       -0.2041
      6 C         141.3706  137.7979  156.8044 C.ar    1  UNL1        0.0667
      7 C         142.7740  137.7205  157.3283 C.ar    1  UNL1        0.1461
      8 C         143.1721  138.5274  158.5284 C.ar    1  UNL1        0.0348
      9 O         143.7793  136.8362  156.6519 O.3     1  UNL1       -0.4263
     10 C         143.4142  135.4278  156.2872 C.3     1  UNL1        0.4723
     11 F         143.3021  135.0801  157.7420 F       1  UNL1       -0.1579
     12 F         143.5263  135.7755  154.8324 F       1  UNL1       -0.1579
     13 C         143.0491  134.0194  155.9225 C.3     1  UNL1        0.4202
     14 F         142.5506  133.0767  156.9774 F       1  UNL1       -0.1876
     15 F         143.1824  133.5537  154.5028 F       1  UNL1       -0.1876
     16 C         142.2200  141.4804  159.6710 C.ar    1  UNL1        0.0010
     17 C         143.0208  141.8932  158.4717 C.ar    1  UNL1        0.0001
     18 C         142.6759  143.1550  157.7377 C.ar    1  UNL1        0.0325
     19 C         141.5303  144.0041  158.2031 C.ar    1  UNL1        0.1738
     20 F         141.1853  145.2660  157.4691 F       1  UNL1       -0.2010
     21 C         140.7295  143.5913  159.4024 C.ar    1  UNL1        0.1653
     22 C         141.0743  142.3294  160.1363 C.ar    1  UNL1        0.0368
     23 O         139.5838  144.4404  159.8677 O.3     1  UNL1       -0.4769
     24 C         139.6385  145.1021  161.2127 C.3     1  UNL1        0.1662
     25 C         139.9162  146.3119  162.0548 C.3     1  UNL1        0.0472
     26 C         139.4556  145.0386  162.7001 C.3     1  UNL1        0.0472
     27 C         144.3950  141.4293  161.7959 C.2     1  UNL1        0.2398
     28 O         145.0640  141.3115  161.3787 O.2     1  UNL1       -0.2736
     29 N         142.9631  141.0253  161.6052 N.am    1  UNL1       -0.2991
     30 H         142.2846  141.2897  162.2677 H       1  UNL1        0.1500
     31 N         146.0215  141.7082  163.6761 N.3     1  UNL1       -0.3126
     32 C         144.7932  142.2362  162.9961 C.3     1  UNL1        0.1699
     33 H         146.3569  140.8829  163.1794 H       1  UNL1        0.1193
     34 H         145.7960  141.4574  164.6387 H       1  UNL1        0.1193
     35 C         143.9829  143.4330  163.3977 C.3     1  UNL1        0.2849
     36 O         143.9795  143.9081  161.9748 O.3     1  UNL1       -0.3715
     37 H         144.4727  143.2808  161.4233 H       1  UNL1        0.2109
     38 C         143.1728  144.6298  163.7992 C.3     1  UNL1        0.4292
     39 F         142.3626  145.8266  164.2007 F       1  UNL1       -0.1672
     40 F         144.1731  145.5296  163.1359 F       1  UNL1       -0.1672
     41 F         142.0812  143.8827  164.5064 F       1  UNL1       -0.1672
     42 C         143.9864  142.9581  164.8204 C.3     1  UNL1        0.4292
     43 F         143.9899  142.4831  166.2433 F       1  UNL1       -0.1672
     44 F         143.1761  141.7152  164.6003 F       1  UNL1       -0.1672
     45 F         144.7977  144.0852  165.3875 F       1  UNL1       -0.1672
     46 C         142.9098  138.9566  161.1389 C.3     1  UNL1        0.0528
     47 C         142.0571  138.4984  162.2848 C.ar    1  UNL1       -0.0199
     48 C         142.6414  138.4020  163.6629 C.ar    1  UNL1       -0.0042
     49 C         141.7887  137.9438  164.8087 C.ar    1  UNL1       -0.0003
     50 C         140.3516  137.5821  164.5764 C.ar    1  UNL1       -0.0000
     51 C         139.7673  137.6785  163.1983 C.ar    1  UNL1       -0.0003
     52 C         140.6200  138.1367  162.0525 C.ar    1  UNL1       -0.0042
@<TRIPOS>BOND
     1    31    32    1
     2    32    27    1
     3    27    28    2
     4    27    29   am
     5    29     1    1
     6     1    46    1
     7    46    47    1
     8    47    48   ar
     9    48    49   ar
    10    49    50   ar
    11    50    51   ar
    12    51    52   ar
    13     1     2    1
    14     2     3   ar
    15     3     4   ar
    16     4     5    1
    17     4     6   ar
    18     6     7   ar
    19     7     9    1
    20     9    10    1
    21    10    11    1
    22    10    12    1
    23    10    13    1
    24    13    14    1
    25    13    15    1
    26     7     8   ar
    27     1    16    1
    28    16    17   ar
    29    17    18   ar
    30    18    19   ar
    31    19    20    1
    32    19    21   ar
    33    21    23    1
    34    23    24    1
    35    24    25    1
    36    25    26    1
    37    21    22   ar
    38    32    35    1
    39    35    36    1
    40    35    38    1
    41    38    39    1
    42    38    40    1
    43    38    41    1
    44    35    42    1
    45    42    43    1
    46    42    44    1
    47    42    45    1
    48    52    47   ar
    49     8     2   ar
    50    22    16   ar
    51    26    24    1
    52    31    33    1
    53    31    34    1
    54    29    30    1
    55    36    37    1
@<TRIPOS>MOLECULE
*****
 52 55 0 0 0
SMALL
GASTEIGER

@<TRIPOS>ATOM
      1 C         141.9434  142.6816  162.3533 C.3     1  UNL1        0.0990
      2 C         142.3861  142.4804  163.7723 C.ar    1  UNL1        0.0031
      3 C         143.5228  143.2881  164.3250 C.ar    1  UNL1        0.0274
      4 C         143.9654  143.0868  165.7441 C.ar    1  UNL1        0.1429
      5 F         145.1021  143.8945  166.2968 F       1  UNL1       -0.2041
      6 C         143.2713  142.0780  166.6103 C.ar    1  UNL1        0.0667
      7 C         142.1346  141.2703  166.0575 C.ar    1  UNL1        0.1461
      8 C         141.6920  141.4714  164.6386 C.ar    1  UNL1        0.0348
      9 O         141.4406  140.2613  166.9238 O.3     1  UNL1       -0.4263
     10 C         140.0099  139.8996  166.6550 C.3     1  UNL1        0.4723
     11 F         139.5609  141.1206  167.4019 F       1  UNL1       -0.1579
     12 F         140.4589  138.6787  165.9082 F       1  UNL1       -0.1579
     13 C         138.5792  139.5379  166.3862 C.3     1  UNL1        0.4202
     14 F         137.8504  140.1657  165.2352 F       1  UNL1       -0.1876
     15 F         137.8773  138.5485  167.2684 F       1  UNL1       -0.1876
     16 C         142.4405  141.3101  162.0038 C.ar    1  UNL1        0.0010
     17 C         143.9068  141.0753  161.7919 C.ar    1  UNL1        0.0001
     18 C         144.4039  139.7039  161.4424 C.ar    1  UNL1        0.0325
     19 C         143.4347  138.5673  161.3049 C.ar    1  UNL1        0.1738
     20 F         143.9318  137.1959  160.9555 F       1  UNL1       -0.2010
     21 C         141.9685  138.8022  161.5169 C.ar    1  UNL1        0.1653
     22 C         141.4714  140.1735  161.8663 C.ar    1  UNL1        0.0368
     23 O         140.9993  137.6655  161.3794 O.3     1  UNL1       -0.4769
     24 C         139.6412  137.7576  162.0094 C.3     1  UNL1        0.1662
     25 C         138.1804  138.0825  161.9058 C.3     1  UNL1        0.0472
     26 C         138.7494  137.5920  163.2041 C.3     1  UNL1        0.0472
     27 C         142.4047  143.5750  159.9576 C.2     1  UNL1        0.2398
     28 O         143.1333  143.8945  160.0079 O.2     1  UNL1       -0.2736
     29 N         141.5008  142.8828  160.9343 N.am    1  UNL1       -0.2991
     30 H         140.6170  142.5605  160.6440 H       1  UNL1        0.1500
     31 N         142.8396  144.7273  157.7802 N.3     1  UNL1       -0.3126
     32 C         141.9621  143.7762  158.5387 C.3     1  UNL1        0.1699
     33 H         143.5856  145.0616  158.3902 H       1  UNL1        0.1193
     34 H         142.2836  145.5193  157.4576 H       1  UNL1        0.1193
     35 C         140.7524  143.0559  158.0210 C.3     1  UNL1        0.2849
     36 O         141.3716  141.7433  158.4003 O.3     1  UNL1       -0.3715
     37 H         142.2426  141.8995  158.7977 H       1  UNL1        0.2109
     38 C         139.5427  142.3356  157.5035 C.3     1  UNL1        0.4292
     39 F         138.3331  141.6153  156.9859 F       1  UNL1       -0.1672
     40 F         140.4184  141.5049  156.6128 F       1  UNL1       -0.1672
     41 F         138.5262  143.0722  158.3244 F       1  UNL1       -0.1672
     42 C         140.1331  144.3683  157.6418 C.3     1  UNL1        0.4292
     43 F         139.5138  145.6809  157.2625 F       1  UNL1       -0.1672
     44 F         140.1666  144.1639  156.1562 F       1  UNL1       -0.1672
     45 F         139.9486  144.8929  159.0350 F       1  UNL1       -0.1672
     46 C         141.4464  144.0530  162.7028 C.3     1  UNL1        0.0528
     47 C         140.1281  144.2180  163.3991 C.ar    1  UNL1       -0.0199
     48 C         140.0818  144.7488  164.8013 C.ar    1  UNL1       -0.0042
     49 C         138.7635  144.9139  165.4976 C.ar    1  UNL1       -0.0003
     50 C         137.4915  144.5481  164.7917 C.ar    1  UNL1       -0.0000
     51 C         137.5378  144.0174  163.3896 C.ar    1  UNL1       -0.0003
     52 C         138.8561  143.8523  162.6933 C.ar    1  UNL1       -0.0042
@<TRIPOS>BOND
     1    31    32    1
     2    32    27    1
     3    27    28    2
     4    27    29   am
     5    29     1    1
     6     1    46    1
     7    46    47    1
     8    47    48   ar
     9    48    49   ar
    10    49    50   ar
    11    50    51   ar
    12    51    52   ar
    13     1     2    1
    14     2     3   ar
    15     3     4   ar
    16     4     5    1
    17     4     6   ar
    18     6     7   ar
    19     7     9    1
    20     9    10    1
    21    10    11    1
    22    10    12    1
    23    10    13    1
    24    13    14    1
    25    13    15    1
    26     7     8   ar
    27     1    16    1
    28    16    17   ar
    29    17    18   ar
    30    18    19   ar
    31    19    20    1
    32    19    21   ar
    33    21    23    1
    34    23    24    1
    35    24    25    1
    36    25    26    1
    37    21    22   ar
    38    32    35    1
    39    35    36    1
    40    35    38    1
    41    38    39    1
    42    38    40    1
    43    38    41    1
    44    35    42    1
    45    42    43    1
    46    42    44    1
    47    42    45    1
    48    52    47   ar
    49     8     2   ar
    50    22    16   ar
    51    26    24    1
    52    31    33    1
    53    31    34    1
    54    29    30    1
    55    36    37    1
@<TRIPOS>MOLECULE
*****
 52 55 0 0 0
SMALL
GASTEIGER

@<TRIPOS>ATOM
      1 C         139.9960  139.9062  164.1846 C.3     1  UNL1        0.0990
      2 C         139.5573  139.7915  165.6144 C.ar    1  UNL1        0.0031
      3 C         138.3712  138.9446  165.9694 C.ar    1  UNL1        0.0274
      4 C         137.9326  138.8300  167.3992 C.ar    1  UNL1        0.1429
      5 F         136.7465  137.9831  167.7542 F       1  UNL1       -0.2041
      6 C         138.6800  139.5621  168.4740 C.ar    1  UNL1        0.0667
      7 C         139.8661  140.4090  168.1190 C.ar    1  UNL1        0.1461
      8 C         140.3047  140.5237  166.6892 C.ar    1  UNL1        0.0348
      9 O         140.6135  141.1412  169.1939 O.3     1  UNL1       -0.4263
     10 C         141.9684  141.7170  168.9063 C.3     1  UNL1        0.4723
     11 F         142.5710  140.3466  169.0016 F       1  UNL1       -0.1579
     12 F         141.3658  143.0873  168.8110 F       1  UNL1       -0.1579
     13 C         143.3232  142.2927  168.6186 C.3     1  UNL1        0.4202
     14 F         144.3214  142.4515  169.7270 F       1  UNL1       -0.1876
     15 F         143.6800  142.7097  167.2226 F       1  UNL1       -0.1876
     16 C         141.3915  139.5261  164.5823 C.ar    1  UNL1        0.0010
     17 C         141.6436  138.2228  165.2808 C.ar    1  UNL1        0.0001
     18 C         143.0390  137.8427  165.6785 C.ar    1  UNL1        0.0325
     19 C         144.1824  138.7658  165.3777 C.ar    1  UNL1        0.1738
     20 F         145.5779  138.3857  165.7754 F       1  UNL1       -0.2010
     21 C         143.9303  140.0691  164.6792 C.ar    1  UNL1        0.1653
     22 C         142.5349  140.4492  164.2815 C.ar    1  UNL1        0.0368
     23 O         145.0737  140.9923  164.3784 O.3     1  UNL1       -0.4769
     24 C         144.8242  142.2869  163.6632 C.3     1  UNL1        0.1662
     25 C         144.8093  143.0889  162.3956 C.3     1  UNL1        0.0472
     26 C         144.4070  143.7274  163.6919 C.3     1  UNL1        0.0472
     27 C         140.2266  138.8728  161.8120 C.2     1  UNL1        0.2398
     28 O         139.9102  138.1450  161.8870 O.2     1  UNL1       -0.2736
     29 N         140.4347  140.0209  162.7548 N.am    1  UNL1       -0.2991
     30 H         140.8592  140.8496  162.4351 H       1  UNL1        0.1500
     31 N         139.7347  138.3011  159.4267 N.3     1  UNL1       -0.3126
     32 C         140.6652  138.9875  160.3822 C.3     1  UNL1        0.1699
     33 H         138.9649  137.8789  159.9460 H       1  UNL1        0.1193
     34 H         140.2418  137.5753  158.9204 H       1  UNL1        0.1193
     35 C         141.9214  139.7328  160.0405 C.3     1  UNL1        0.2849
     36 O         142.6459  139.0164  161.1414 O.3     1  UNL1       -0.3715
     37 H         142.0362  138.4076  161.5870 H       1  UNL1        0.2109
     38 C         143.1775  140.4780  159.6989 C.3     1  UNL1        0.4292
     39 F         144.4336  141.2233  159.3573 F       1  UNL1       -0.1672
     40 F         143.9067  139.1767  159.5409 F       1  UNL1       -0.1672
     41 F         142.6070  141.8604  159.8140 F       1  UNL1       -0.1672
     42 C         141.1970  140.4492  158.9397 C.3     1  UNL1        0.4292
     43 F         140.4725  141.1657  157.8388 F       1  UNL1       -0.1672
     44 F         141.9530  139.8400  157.7965 F       1  UNL1       -0.1672
     45 F         140.2642  141.2333  159.8146 F       1  UNL1       -0.1672
     46 C         138.6005  140.2863  163.7869 C.3     1  UNL1        0.0528
     47 C         138.2582  141.7246  163.5337 C.ar    1  UNL1       -0.0199
     48 C         138.2029  142.2462  162.1284 C.ar    1  UNL1       -0.0042
     49 C         137.8606  143.6845  161.8752 C.ar    1  UNL1       -0.0003
     50 C         137.5737  144.6012  163.0273 C.ar    1  UNL1       -0.0000
     51 C         137.6291  144.0796  164.4326 C.ar    1  UNL1       -0.0003
     52 C         137.9713  142.6413  164.6858 C.ar    1  UNL1       -0.0042
@<TRIPOS>BOND
     1    31    32    1
     2    32    27    1
     3    27    28    2
     4    27    29   am
     5    29     1    1
     6     1    46    1
     7    46    47    1
     8    47    48   ar
     9    48    49   ar
    10    49    50   ar
    11    50    51   ar
    12    51    52   ar
    13     1     2    1
    14     2     3   ar
    15     3     4   ar
    16     4     5    1
    17     4     6   ar
    18     6     7   ar
    19     7     9    1
    20     9    10    1
    21    10    11    1
    22    10    12    1
    23    10    13    1
    24    13    14    1
    25    13    15    1
    26     7     8   ar
    27     1    16    1
    28    16    17   ar
    29    17    18   ar
    30    18    19   ar
    31    19    20    1
    32    19    21   ar
    33    21    23    1
    34    23    24    1
    35    24    25    1
    36    25    26    1
    37    21    22   ar
    38    32    35    1
    39    35    36    1
    40    35    38    1
    41    38    39    1
    42    38    40    1
    43    38    41    1
    44    35    42    1
    45    42    43    1
    46    42    44    1
    47    42    45    1
    48    52    47   ar
    49     8     2   ar
    50    22    16   ar
    51    26    24    1
    52    31    33    1
    53    31    34    1
    54    29    30    1
    55    36    37    1
@<TRIPOS>MOLECULE
*****
 52 55 0 0 0
SMALL
GASTEIGER

@<TRIPOS>ATOM
      1 C         142.7697  142.1777  159.8410 C.3     1  UNL1        0.0990
      2 C         143.5931  141.6773  158.6915 C.ar    1  UNL1        0.0031
      3 C         144.6897  142.5309  158.1267 C.ar    1  UNL1        0.0274
      4 C         145.5131  142.0304  156.9770 C.ar    1  UNL1        0.1429
      5 F         146.6096  142.8840  156.4123 F       1  UNL1       -0.2041
      6 C         145.2399  140.6764  156.3922 C.ar    1  UNL1        0.0667
      7 C         144.1433  139.8228  156.9570 C.ar    1  UNL1        0.1461
      8 C         143.3200  140.3232  158.1066 C.ar    1  UNL1        0.0348
      9 O         143.8702  138.4688  156.3721 O.3     1  UNL1       -0.4263
     10 C         142.5245  137.8313  156.5528 C.3     1  UNL1        0.4723
     11 F         143.1034  136.8991  157.5756 F       1  UNL1       -0.1579
     12 F         141.9456  138.7635  155.5301 F       1  UNL1       -0.1579
     13 C         141.1788  137.1939  156.7335 C.3     1  UNL1        0.4202
     14 F         140.2221  137.7377  157.7528 F       1  UNL1       -0.1876
     15 F         140.7898  136.0125  155.8949 F       1  UNL1       -0.1876
     16 C         141.5189  141.9454  159.0462 C.ar    1  UNL1        0.0010
     17 C         141.2910  142.6988  157.7693 C.ar    1  UNL1        0.0001
     18 C         140.0403  142.4665  156.9745 C.ar    1  UNL1        0.0325
     19 C         139.0175  141.4809  157.4566 C.ar    1  UNL1        0.1738
     20 F         137.7668  141.2486  156.6618 F       1  UNL1       -0.2010
     21 C         139.2455  140.7275  158.7335 C.ar    1  UNL1        0.1653
     22 C         140.4962  140.9597  159.5283 C.ar    1  UNL1        0.0368
     23 O         138.2226  139.7418  159.2155 O.3     1  UNL1       -0.4769
     24 C         138.3583  139.1251  160.5761 C.3     1  UNL1        0.1662
     25 C         137.9269  139.0337  162.0098 C.3     1  UNL1        0.0472
     26 C         139.0246  138.1483  161.4990 C.3     1  UNL1        0.0472
     27 C         141.7223  144.1507  161.1678 C.2     1  UNL1        0.2398
     28 O         141.9536  144.7985  160.7649 O.2     1  UNL1       -0.2736
     29 N         141.9463  142.6781  160.9906 N.am    1  UNL1       -0.2991
     30 H         141.5529  142.0400  161.6289 H       1  UNL1        0.1500
     31 N         141.4937  145.8562  162.9836 N.3     1  UNL1       -0.3126
     32 C         140.8989  144.6511  162.3174 C.3     1  UNL1        0.1699
     33 H         142.3639  146.1088  162.5152 H       1  UNL1        0.1193
     34 H         141.6839  145.6441  163.9630 H       1  UNL1        0.1193
     35 C         139.6249  143.9514  162.6881 C.3     1  UNL1        0.2849
     36 O         139.1837  143.9954  161.2550 O.3     1  UNL1       -0.3715
     37 H         139.8654  144.4315  160.7201 H       1  UNL1        0.2109
     38 C         138.3509  143.2517  163.0586 C.3     1  UNL1        0.4292
     39 F         137.0769  142.5521  163.4292 F       1  UNL1       -0.1672
     40 F         137.5676  144.4684  162.6632 F       1  UNL1       -0.1672
     41 F         138.9729  141.9589  163.4963 F       1  UNL1       -0.1672
     42 C         140.0659  143.9073  164.1210 C.3     1  UNL1        0.4292
     43 F         140.5069  143.8632  165.5541 F       1  UNL1       -0.1672
     44 F         141.1822  142.9222  163.9386 F       1  UNL1       -0.1672
     45 F         139.0570  144.8818  164.6529 F       1  UNL1       -0.1672
     46 C         144.0205  142.4099  160.6358 C.3     1  UNL1        0.0528
     47 C         144.3516  141.5136  161.7921 C.ar    1  UNL1       -0.0199
     48 C         143.8343  140.1060  161.8222 C.ar    1  UNL1       -0.0042
     49 C         144.1654  139.2098  162.9785 C.ar    1  UNL1       -0.0003
     50 C         145.0140  139.7212  164.1047 C.ar    1  UNL1       -0.0000
     51 C         145.5314  141.1288  164.0747 C.ar    1  UNL1       -0.0003
     52 C         145.2002  142.0250  162.9184 C.ar    1  UNL1       -0.0042
@<TRIPOS>BOND
     1    31    32    1
     2    32    27    1
     3    27    28    2
     4    27    29   am
     5    29     1    1
     6     1    46    1
     7    46    47    1
     8    47    48   ar
     9    48    49   ar
    10    49    50   ar
    11    50    51   ar
    12    51    52   ar
    13     1     2    1
    14     2     3   ar
    15     3     4   ar
    16     4     5    1
    17     4     6   ar
    18     6     7   ar
    19     7     9    1
    20     9    10    1
    21    10    11    1
    22    10    12    1
    23    10    13    1
    24    13    14    1
    25    13    15    1
    26     7     8   ar
    27     1    16    1
    28    16    17   ar
    29    17    18   ar
    30    18    19   ar
    31    19    20    1
    32    19    21   ar
    33    21    23    1
    34    23    24    1
    35    24    25    1
    36    25    26    1
    37    21    22   ar
    38    32    35    1
    39    35    36    1
    40    35    38    1
    41    38    39    1
    42    38    40    1
    43    38    41    1
    44    35    42    1
    45    42    43    1
    46    42    44    1
    47    42    45    1
    48    52    47   ar
    49     8     2   ar
    50    22    16   ar
    51    26    24    1
    52    31    33    1
    53    31    34    1
    54    29    30    1
    55    36    37    1
@<TRIPOS>MOLECULE
*****
 52 55 0 0 0
SMALL
GASTEIGER

@<TRIPOS>ATOM
      1 C         142.4225  140.3644  160.6028 C.3     1  UNL1        0.0990
      2 C         141.9585  139.5632  159.4227 C.ar    1  UNL1        0.0031
      3 C         142.8822  138.5718  158.7793 C.ar    1  UNL1        0.0274
      4 C         142.4182  137.7706  157.5991 C.ar    1  UNL1        0.1429
      5 F         143.3418  136.7792  156.9557 F       1  UNL1       -0.2041
      6 C         141.0305  137.9608  157.0623 C.ar    1  UNL1        0.0667
      7 C         140.1068  138.9522  157.7057 C.ar    1  UNL1        0.1461
      8 C         140.5708  139.7534  158.8858 C.ar    1  UNL1        0.0348
      9 O         138.7191  139.1424  157.1688 O.3     1  UNL1       -0.4263
     10 C         138.1330  140.5201  157.0763 C.3     1  UNL1        0.4723
     11 F         137.3914  140.2908  158.3599 F       1  UNL1       -0.1579
     12 F         138.8746  140.7494  155.7928 F       1  UNL1       -0.1579
     13 C         137.5469  141.8977  156.9838 C.3     1  UNL1        0.4202
     14 F         136.2993  142.1298  156.1842 F       1  UNL1       -0.1876
     15 F         138.2085  143.0433  157.6910 F       1  UNL1       -0.1876
     16 C         142.0136  141.6280  159.9056 C.ar    1  UNL1        0.0010
     17 C         142.6158  141.9806  158.5779 C.ar    1  UNL1        0.0001
     18 C         142.2069  143.2442  157.8807 C.ar    1  UNL1        0.0325
     19 C         141.1959  144.1552  158.5113 C.ar    1  UNL1        0.1738
     20 F         140.7869  145.4189  157.8141 F       1  UNL1       -0.2010
     21 C         140.5936  143.8026  159.8391 C.ar    1  UNL1        0.1653
     22 C         141.0025  142.5390  160.5363 C.ar    1  UNL1        0.0368
     23 O         139.5825  144.7137  160.4697 O.3     1  UNL1       -0.4769
     24 C         139.2258  144.5506  161.9175 C.3     1  UNL1        0.1662
     25 C         139.3773  144.9743  163.3484 C.3     1  UNL1        0.0472
     26 C         138.4565  143.8444  162.9942 C.3     1  UNL1        0.0472
     27 C         144.3384  141.5129  161.9296 C.2     1  UNL1        0.2398
     28 O         144.9900  141.3642  161.4951 O.2     1  UNL1       -0.2736
     29 N         142.8865  141.1655  161.7830 N.am    1  UNL1       -0.2991
     30 H         142.2381  141.4634  162.4613 H       1  UNL1        0.1500
     31 N         146.0290  141.7449  163.7588 N.3     1  UNL1       -0.3126
     32 C         144.8023  142.3141  163.1098 C.3     1  UNL1        0.1699
     33 H         146.3177  140.9030  163.2606 H       1  UNL1        0.1193
     34 H         145.8225  141.5113  164.7300 H       1  UNL1        0.1193
     35 C         144.0508  143.5448  163.5231 C.3     1  UNL1        0.2849
     36 O         144.0429  144.0180  162.0996 O.3     1  UNL1       -0.3715
     37 H         144.4994  143.3697  161.5408 H       1  UNL1        0.2109
     38 C         143.2993  144.7754  163.9363 C.3     1  UNL1        0.4292
     39 F         142.5478  146.0060  164.3495 F       1  UNL1       -0.1672
     40 F         144.2907  145.6278  163.2011 F       1  UNL1       -0.1672
     41 F         142.2237  144.0794  164.7164 F       1  UNL1       -0.1672
     42 C         144.0587  143.0716  164.9464 C.3     1  UNL1        0.4292
     43 F         144.0665  142.5984  166.3699 F       1  UNL1       -0.1672
     44 F         144.9249  144.1649  165.4978 F       1  UNL1       -0.1672
     45 F         143.1943  141.8628  164.7420 F       1  UNL1       -0.1672
     46 C         142.8314  139.1007  161.2999 C.3     1  UNL1        0.0528
     47 C         142.0100  138.5728  162.4387 C.ar    1  UNL1       -0.0199
     48 C         140.5960  138.1315  162.2021 C.ar    1  UNL1       -0.0042
     49 C         139.7747  137.6036  163.3408 C.ar    1  UNL1       -0.0003
     50 C         140.3673  137.5171  164.7161 C.ar    1  UNL1       -0.0000
     51 C         141.7812  137.9584  164.9526 C.ar    1  UNL1       -0.0003
     52 C         142.6025  138.4863  163.8139 C.ar    1  UNL1       -0.0042
@<TRIPOS>BOND
     1    31    32    1
     2    32    27    1
     3    27    28    2
     4    27    29   am
     5    29     1    1
     6     1    46    1
     7    46    47    1
     8    47    48   ar
     9    48    49   ar
    10    49    50   ar
    11    50    51   ar
    12    51    52   ar
    13     1     2    1
    14     2     3   ar
    15     3     4   ar
    16     4     5    1
    17     4     6   ar
    18     6     7   ar
    19     7     9    1
    20     9    10    1
    21    10    11    1
    22    10    12    1
    23    10    13    1
    24    13    14    1
    25    13    15    1
    26     7     8   ar
    27     1    16    1
    28    16    17   ar
    29    17    18   ar
    30    18    19   ar
    31    19    20    1
    32    19    21   ar
    33    21    23    1
    34    23    24    1
    35    24    25    1
    36    25    26    1
    37    21    22   ar
    38    32    35    1
    39    35    36    1
    40    35    38    1
    41    38    39    1
    42    38    40    1
    43    38    41    1
    44    35    42    1
    45    42    43    1
    46    42    44    1
    47    42    45    1
    48    52    47   ar
    49     8     2   ar
    50    22    16   ar
    51    26    24    1
    52    31    33    1
    53    31    34    1
    54    29    30    1
    55    36    37    1
@<TRIPOS>MOLECULE
*****
 52 55 0 0 0
SMALL
GASTEIGER

@<TRIPOS>ATOM
      1 C         140.6263  142.6378  160.0773 C.3     1  UNL1        0.0990
      2 C         139.7071  142.5967  158.8927 C.ar    1  UNL1        0.0031
      3 C         138.5622  141.6279  158.8650 C.ar    1  UNL1        0.0274
      4 C         137.6429  141.5869  157.6804 C.ar    1  UNL1        0.1429
      5 F         136.4981  140.6181  157.6527 F       1  UNL1       -0.2041
      6 C         137.8686  142.5145  156.5234 C.ar    1  UNL1        0.0667
      7 C         139.0135  143.4833  156.5511 C.ar    1  UNL1        0.1461
      8 C         139.9327  143.5244  157.7357 C.ar    1  UNL1        0.0348
      9 O         139.2391  144.4109  155.3941 O.3     1  UNL1       -0.4263
     10 C         139.1096  145.8931  155.5849 C.3     1  UNL1        0.4723
     11 F         140.5892  145.9934  155.8103 F       1  UNL1       -0.1579
     12 F         137.6301  145.7928  155.3594 F       1  UNL1       -0.1579
     13 C         138.9801  147.3752  155.7756 C.3     1  UNL1        0.4202
     14 F         138.8192  147.9427  157.1548 F       1  UNL1       -0.1876
     15 F         139.0116  148.2900  154.5872 F       1  UNL1       -0.1876
     16 C         141.2771  141.3673  159.6163 C.ar    1  UNL1        0.0010
     17 C         141.9997  141.3288  158.3023 C.ar    1  UNL1        0.0001
     18 C         142.6505  140.0584  157.8413 C.ar    1  UNL1        0.0325
     19 C         142.5787  138.8266  158.6942 C.ar    1  UNL1        0.1738
     20 F         143.2296  137.5561  158.2332 F       1  UNL1       -0.2010
     21 C         141.8562  138.8652  160.0081 C.ar    1  UNL1        0.1653
     22 C         141.2054  140.1355  160.4692 C.ar    1  UNL1        0.0368
     23 O         141.7844  137.6333  160.8610 O.3     1  UNL1       -0.4769
     24 C         141.2125  137.7118  162.2454 C.3     1  UNL1        0.1662
     25 C         140.0285  137.6768  163.1657 C.3     1  UNL1        0.0472
     26 C         141.4057  137.8829  163.7230 C.3     1  UNL1        0.0472
     27 C         142.7577  143.5623  161.2403 C.2     1  UNL1        0.2398
     28 O         143.0670  144.0652  160.7047 O.2     1  UNL1       -0.2736
     29 N         141.5455  142.6789  161.2619 N.am    1  UNL1       -0.2991
     30 H         141.3533  142.1261  162.0535 H       1  UNL1        0.1500
     31 N         144.0098  144.9996  162.8603 N.3     1  UNL1       -0.3126
     32 C         143.6769  143.6034  162.4249 C.3     1  UNL1        0.1699
     33 H         143.5356  145.6675  162.2524 H       1  UNL1        0.1193
     34 H         145.0180  145.1428  162.8017 H       1  UNL1        0.1193
     35 C         144.1613  142.3253  163.0431 C.3     1  UNL1        0.2849
     36 O         144.4904  141.7910  161.6806 O.3     1  UNL1       -0.3715
     37 H         144.2660  142.4550  161.0100 H       1  UNL1        0.2109
     38 C         144.6457  141.0473  163.6611 C.3     1  UNL1        0.4292
     39 F         145.1301  139.7694  164.2792 F       1  UNL1       -0.1672
     40 F         146.0205  141.3065  163.1198 F       1  UNL1       -0.1672
     41 F         143.3404  140.6343  164.2738 F       1  UNL1       -0.1672
     42 C         143.8323  142.8595  164.4055 C.3     1  UNL1        0.4292
     43 F         143.5032  143.3938  165.7680 F       1  UNL1       -0.1672
     44 F         145.2413  142.9489  164.9121 F       1  UNL1       -0.1672
     45 F         142.3430  142.9005  164.2311 F       1  UNL1       -0.1672
     46 C         139.9755  143.9082  160.5382 C.3     1  UNL1        0.0528
     47 C         139.3037  143.9633  161.8783 C.ar    1  UNL1       -0.0199
     48 C         138.1489  143.0536  162.1763 C.ar    1  UNL1       -0.0042
     49 C         137.4771  143.1088  163.5163 C.ar    1  UNL1       -0.0003
     50 C         137.9601  144.0737  164.5583 C.ar    1  UNL1       -0.0000
     51 C         139.1148  144.9835  164.2602 C.ar    1  UNL1       -0.0003
     52 C         139.7866  144.9283  162.9202 C.ar    1  UNL1       -0.0042
@<TRIPOS>BOND
     1    31    32    1
     2    32    27    1
     3    27    28    2
     4    27    29   am
     5    29     1    1
     6     1    46    1
     7    46    47    1
     8    47    48   ar
     9    48    49   ar
    10    49    50   ar
    11    50    51   ar
    12    51    52   ar
    13     1     2    1
    14     2     3   ar
    15     3     4   ar
    16     4     5    1
    17     4     6   ar
    18     6     7   ar
    19     7     9    1
    20     9    10    1
    21    10    11    1
    22    10    12    1
    23    10    13    1
    24    13    14    1
    25    13    15    1
    26     7     8   ar
    27     1    16    1
    28    16    17   ar
    29    17    18   ar
    30    18    19   ar
    31    19    20    1
    32    19    21   ar
    33    21    23    1
    34    23    24    1
    35    24    25    1
    36    25    26    1
    37    21    22   ar
    38    32    35    1
    39    35    36    1
    40    35    38    1
    41    38    39    1
    42    38    40    1
    43    38    41    1
    44    35    42    1
    45    42    43    1
    46    42    44    1
    47    42    45    1
    48    52    47   ar
    49     8     2   ar
    50    22    16   ar
    51    26    24    1
    52    31    33    1
    53    31    34    1
    54    29    30    1
    55    36    37    1
@<TRIPOS>MOLECULE
*****
 52 55 0 0 0
SMALL
GASTEIGER

@<TRIPOS>ATOM
      1 C         141.6320  140.9788  166.8347 C.3     1  UNL1        0.0990
      2 C         142.1154  140.3760  168.1203 C.ar    1  UNL1        0.0031
      3 C         141.9952  141.1462  169.4018 C.ar    1  UNL1        0.0274
      4 C         142.4787  140.5433  170.6874 C.ar    1  UNL1        0.1429
      5 F         142.3585  141.3136  171.9689 F       1  UNL1       -0.2041
      6 C         143.0823  139.1702  170.6915 C.ar    1  UNL1        0.0667
      7 C         143.2025  138.3999  169.4100 C.ar    1  UNL1        0.1461
      8 C         142.7190  139.0027  168.1244 C.ar    1  UNL1        0.0348
      9 O         143.8061  137.0266  169.4142 O.3     1  UNL1       -0.4263
     10 C         144.4410  136.4902  170.6628 C.3     1  UNL1        0.4723
     11 F         145.7826  136.5173  169.9924 F       1  UNL1       -0.1579
     12 F         143.0994  136.4631  171.3332 F       1  UNL1       -0.1579
     13 C         145.0758  135.9538  171.9115 C.3     1  UNL1        0.4202
     14 F         145.9322  136.8460  172.7603 F       1  UNL1       -0.1876
     15 F         144.8542  134.5251  172.3114 F       1  UNL1       -0.1876
     16 C         140.3923  140.1373  166.9062 C.ar    1  UNL1        0.0010
     17 C         139.4779  140.2481  168.0901 C.ar    1  UNL1        0.0001
     18 C         138.2383  139.4066  168.1618 C.ar    1  UNL1        0.0325
     19 C         137.9130  138.4543  167.0495 C.ar    1  UNL1        0.1738
     20 F         136.6734  137.6127  167.1210 F       1  UNL1       -0.2010
     21 C         138.8274  138.3434  165.8656 C.ar    1  UNL1        0.1653
     22 C         140.0671  139.1849  165.7940 C.ar    1  UNL1        0.0368
     23 O         138.5021  137.3910  164.7533 O.3     1  UNL1       -0.4769
     24 C         138.8715  137.7336  163.3404 C.3     1  UNL1        0.1662
     25 C         139.9154  138.0528  162.3116 C.3     1  UNL1        0.0472
     26 C         138.4675  138.0079  161.9222 C.3     1  UNL1        0.0472
     27 C         140.3439  142.8475  165.5701 C.2     1  UNL1        0.2398
     28 O         140.0826  143.3280  166.1501 O.2     1  UNL1       -0.2736
     29 N         141.1485  141.5817  165.5491 N.am    1  UNL1       -0.2991
     30 H         141.3594  141.1466  164.6915 H       1  UNL1        0.1500
     31 N         140.2878  144.8774  164.1092 N.3     1  UNL1       -0.3126
     32 C         139.8604  143.4503  164.2845 C.3     1  UNL1        0.1699
     33 H         140.8377  145.1694  164.9172 H       1  UNL1        0.1193
     34 H         139.4629  145.4717  164.0266 H       1  UNL1        0.1193
     35 C         139.0389  142.6307  163.3340 C.3     1  UNL1        0.2849
     36 O         140.0653  141.5382  163.3890 O.3     1  UNL1       -0.3715
     37 H         140.7874  141.8024  163.9803 H       1  UNL1        0.2109
     38 C         138.2175  141.8111  162.3835 C.3     1  UNL1        0.4292
     39 F         137.3960  140.9916  161.4331 F       1  UNL1       -0.1672
     40 F         139.3874  141.7224  161.4488 F       1  UNL1       -0.1672
     41 F         136.9562  141.7993  163.1953 F       1  UNL1       -0.1672
     42 C         138.0126  143.7232  163.2790 C.3     1  UNL1        0.4292
     43 F         136.9862  144.8157  163.2239 F       1  UNL1       -0.1672
     44 F         137.5081  143.5710  164.6833 F       1  UNL1       -0.1672
     45 F         138.2669  144.1418  161.8611 F       1  UNL1       -0.1672
     46 C         142.8716  141.8203  166.7631 C.3     1  UNL1        0.0528
     47 C         143.7734  141.7272  165.5680 C.ar    1  UNL1       -0.0199
     48 C         144.1321  140.3853  165.0019 C.ar    1  UNL1       -0.0042
     49 C         145.0339  140.2923  163.8068 C.ar    1  UNL1       -0.0003
     50 C         145.5769  141.5412  163.1780 C.ar    1  UNL1       -0.0000
     51 C         145.2181  142.8831  163.7441 C.ar    1  UNL1       -0.0003
     52 C         144.3164  142.9761  164.9392 C.ar    1  UNL1       -0.0042
@<TRIPOS>BOND
     1    31    32    1
     2    32    27    1
     3    27    28    2
     4    27    29   am
     5    29     1    1
     6     1    46    1
     7    46    47    1
     8    47    48   ar
     9    48    49   ar
    10    49    50   ar
    11    50    51   ar
    12    51    52   ar
    13     1     2    1
    14     2     3   ar
    15     3     4   ar
    16     4     5    1
    17     4     6   ar
    18     6     7   ar
    19     7     9    1
    20     9    10    1
    21    10    11    1
    22    10    12    1
    23    10    13    1
    24    13    14    1
    25    13    15    1
    26     7     8   ar
    27     1    16    1
    28    16    17   ar
    29    17    18   ar
    30    18    19   ar
    31    19    20    1
    32    19    21   ar
    33    21    23    1
    34    23    24    1
    35    24    25    1
    36    25    26    1
    37    21    22   ar
    38    32    35    1
    39    35    36    1
    40    35    38    1
    41    38    39    1
    42    38    40    1
    43    38    41    1
    44    35    42    1
    45    42    43    1
    46    42    44    1
    47    42    45    1
    48    52    47   ar
    49     8     2   ar
    50    22    16   ar
    51    26    24    1
    52    31    33    1
    53    31    34    1
    54    29    30    1
    55    36    37    1
@<TRIPOS>MOLECULE
*****
 52 55 0 0 0
SMALL
GASTEIGER

@<TRIPOS>ATOM
      1 C         141.3001  141.6051  166.1469 C.3     1  UNL1        0.0990
      2 C         141.8940  141.3298  167.4965 C.ar    1  UNL1        0.0031
      3 C         142.1077  139.9152  167.9474 C.ar    1  UNL1        0.0274
      4 C         142.7016  139.6399  169.2971 C.ar    1  UNL1        0.1429
      5 F         142.9153  138.2253  169.7480 F       1  UNL1       -0.2041
      6 C         143.0817  140.7791  170.1958 C.ar    1  UNL1        0.0667
      7 C         142.8680  142.1936  169.7448 C.ar    1  UNL1        0.1461
      8 C         142.2741  142.4690  168.3952 C.ar    1  UNL1        0.0348
      9 O         143.2481  143.3329  170.6436 O.3     1  UNL1       -0.4263
     10 C         144.6870  143.7349  170.7772 C.3     1  UNL1        0.4723
     11 F         144.2832  144.8937  171.6399 F       1  UNL1       -0.1579
     12 F         145.0908  142.5761  169.9146 F       1  UNL1       -0.1579
     13 C         146.1259  144.1369  170.9108 C.3     1  UNL1        0.4202
     14 F         146.5549  145.5245  170.5360 F       1  UNL1       -0.1876
     15 F         147.1359  143.1512  171.4192 F       1  UNL1       -0.1876
     16 C         140.2351  140.5812  166.4066 C.ar    1  UNL1        0.0010
     17 C         139.4530  140.6205  167.6860 C.ar    1  UNL1        0.0001
     18 C         138.3881  139.5967  167.9458 C.ar    1  UNL1        0.0325
     19 C         138.1052  138.5335  166.9262 C.ar    1  UNL1        0.1738
     20 F         137.0402  137.5096  167.1859 F       1  UNL1       -0.2010
     21 C         138.8873  138.4942  165.6468 C.ar    1  UNL1        0.1653
     22 C         139.9522  139.5180  165.3870 C.ar    1  UNL1        0.0368
     23 O         138.6043  137.4309  164.6272 O.3     1  UNL1       -0.4769
     24 C         138.8582  137.6994  163.1734 C.3     1  UNL1        0.1662
     25 C         139.8172  137.9161  162.0406 C.3     1  UNL1        0.0472
     26 C         138.3390  137.9476  161.7883 C.3     1  UNL1        0.0472
     27 C         139.6594  142.9434  164.6412 C.2     1  UNL1        0.2398
     28 O         139.3040  143.4489  165.1449 O.2     1  UNL1       -0.2736
     29 N         140.7063  141.8805  164.7973 N.am    1  UNL1       -0.2991
     30 H         141.0036  141.3636  164.0139 H       1  UNL1        0.1500
     31 N         137.7189  143.8752  163.3666 N.3     1  UNL1       -0.3126
     32 C         139.0656  143.2188  163.2916 C.3     1  UNL1        0.1699
     33 H         137.4608  144.0108  164.3441 H       1  UNL1        0.1193
     34 H         137.0256  143.2818  162.9111 H       1  UNL1        0.1193
     35 C         139.8173  142.8401  162.0499 C.3     1  UNL1        0.2849
     36 O         140.9842  143.6657  162.5047 O.3     1  UNL1       -0.3715
     37 H         140.7774  144.0746  163.3596 H       1  UNL1        0.2109
     38 C         140.5690  142.4615  160.8084 C.3     1  UNL1        0.4292
     39 F         141.3208  142.0829  159.5668 F       1  UNL1       -0.1672
     40 F         140.7941  143.9126  160.5021 F       1  UNL1       -0.1672
     41 F         140.4373  140.9752  160.9610 F       1  UNL1       -0.1672
     42 C         138.6505  142.0145  161.5952 C.3     1  UNL1        0.4292
     43 F         137.4836  141.1888  161.1405 F       1  UNL1       -0.1672
     44 F         138.3288  142.8133  160.3671 F       1  UNL1       -0.1672
     45 F         138.6876  141.0143  162.7126 F       1  UNL1       -0.1672
     46 C         142.3651  142.6290  165.8872 C.3     1  UNL1        0.0528
     47 C         143.4428  142.3517  164.8813 C.ar    1  UNL1       -0.0199
     48 C         143.8483  143.4150  163.9042 C.ar    1  UNL1       -0.0042
     49 C         144.9260  143.1377  162.8983 C.ar    1  UNL1       -0.0003
     50 C         145.5981  141.7970  162.8696 C.ar    1  UNL1       -0.0000
     51 C         145.1926  140.7337  163.8468 C.ar    1  UNL1       -0.0003
     52 C         144.1149  141.0110  164.8526 C.ar    1  UNL1       -0.0042
@<TRIPOS>BOND
     1    31    32    1
     2    32    27    1
     3    27    28    2
     4    27    29   am
     5    29     1    1
     6     1    46    1
     7    46    47    1
     8    47    48   ar
     9    48    49   ar
    10    49    50   ar
    11    50    51   ar
    12    51    52   ar
    13     1     2    1
    14     2     3   ar
    15     3     4   ar
    16     4     5    1
    17     4     6   ar
    18     6     7   ar
    19     7     9    1
    20     9    10    1
    21    10    11    1
    22    10    12    1
    23    10    13    1
    24    13    14    1
    25    13    15    1
    26     7     8   ar
    27     1    16    1
    28    16    17   ar
    29    17    18   ar
    30    18    19   ar
    31    19    20    1
    32    19    21   ar
    33    21    23    1
    34    23    24    1
    35    24    25    1
    36    25    26    1
    37    21    22   ar
    38    32    35    1
    39    35    36    1
    40    35    38    1
    41    38    39    1
    42    38    40    1
    43    38    41    1
    44    35    42    1
    45    42    43    1
    46    42    44    1
    47    42    45    1
    48    52    47   ar
    49     8     2   ar
    50    22    16   ar
    51    26    24    1
    52    31    33    1
    53    31    34    1
    54    29    30    1
    55    36    37    1
