@<TRIPOS>MOLECULE
*****
 34 36 0 0 0
SMALL
GASTEIGER

@<TRIPOS>ATOM
      1 C         141.1003  142.8346  166.1830 C.2     1  UNL1        0.2491
      2 O         140.4129  142.9761  167.5087 O.2     1  UNL1       -0.2699
      3 N         142.5878  142.6502  166.1254 N.am    1  UNL1       -0.2777
      4 C         139.1310  144.2401  163.0371 C.ar    1  UNL1        0.1723
      5 C         139.9311  144.1972  164.3052 C.ar    1  UNL1        0.0446
      6 C         140.3002  142.8774  164.9149 C.ar    1  UNL1        0.0568
      7 C         139.8691  141.6004  164.2567 C.ar    1  UNL1        0.0078
      8 C         139.0690  141.6432  162.9886 C.ar    1  UNL1        0.0402
      9 C         138.7000  142.9631  162.3789 C.ar    1  UNL1        0.1724
     10 O         137.8998  143.0059  161.1108 O.3     1  UNL1       -0.4684
     11 C         138.4585  142.4133  159.8511 C.3     1  UNL1        0.2526
     12 O         138.7620  145.5599  162.4274 O.3     1  UNL1       -0.4723
     13 C         139.7166  146.2502  161.4988 C.3     1  UNL1        0.2082
     14 C         140.8072  145.4690  160.8277 C.3     1  UNL1        0.0794
     15 C         140.8160  145.3238  159.3347 C.3     1  UNL1        0.1461
     16 C         142.6581  144.1962  157.8908 C.3     1  UNL1        0.1741
     17 O         142.1096  145.4101  158.5804 O.3     1  UNL1       -0.3510
     18 C         143.2752  142.5087  164.7996 C.3     1  UNL1        0.0757
     19 C         143.7178  143.7303  164.0501 C.3     1  UNL1        0.0215
     20 C         143.5199  141.1456  164.2234 C.3     1  UNL1        0.0215
     21 C         143.3880  142.6074  167.3934 C.3     1  UNL1        0.0950
     22 C         142.9974  141.6676  168.4953 C.3     1  UNL1        0.0373
     23 C         142.9317  142.0008  169.9564 C.3     1  UNL1        0.0703
     24 N         142.4977  140.7687  170.6937 N.3     1  UNL1       -0.2974
     25 C         142.2952  139.6741  169.6884 C.3     1  UNL1        0.0690
     26 C         142.6040  140.2297  168.3297 C.3     1  UNL1        0.0231
     27 H         141.6242  140.9508  171.1879 H       1  UNL1        0.1232
     28 C         142.5321  139.4790  167.0331 C.3     1  UNL1        0.0278
     29 C         141.1999  139.0854  166.4672 C.ar    1  UNL1       -0.0221
     30 C         141.1305  138.2608  165.2161 C.ar    1  UNL1       -0.0043
     31 C         139.7982  137.8672  164.6502 C.ar    1  UNL1       -0.0003
     32 C         138.5354  138.2982  165.3354 C.ar    1  UNL1       -0.0000
     33 C         138.6048  139.1228  166.5865 C.ar    1  UNL1       -0.0003
     34 C         139.9370  139.5164  167.1523 C.ar    1  UNL1       -0.0043
@<TRIPOS>BOND
     1    16    17    1
     2    17    15    1
     3    15    14    1
     4    14    13    1
     5    13    12    1
     6    12     4    1
     7     4     5   ar
     8     5     6   ar
     9     6     1    1
    10     1     2    2
    11     1     3   am
    12     3    21    1
    13    22    21    1
    14    22    23    1
    15    23    24    1
    16    24    25    1
    17    25    26    1
    18    26    28    1
    19    28    29    1
    20    29    30   ar
    21    30    31   ar
    22    31    32   ar
    23    32    33   ar
    24    33    34   ar
    25     3    18    1
    26    18    19    1
    27    18    20    1
    28     6     7   ar
    29     7     8   ar
    30     8     9   ar
    31     9    10    1
    32    10    11    1
    33     9     4   ar
    34    26    22    1
    35    34    29   ar
    36    24    27    1
@<TRIPOS>MOLECULE
*****
 34 36 0 0 0
SMALL
GASTEIGER

@<TRIPOS>ATOM
      1 C         141.6644  139.1738  166.2342 C.2     1  UNL1        0.2491
      2 O         143.0124  138.9877  166.8652 O.2     1  UNL1       -0.2699
      3 N         140.4921  139.5821  167.0762 N.am    1  UNL1       -0.2777
      4 C         141.6752  139.8145  162.3176 C.ar    1  UNL1        0.1723
      5 C         141.8509  140.0366  163.7906 C.ar    1  UNL1        0.0446
      6 C         141.4887  138.9517  164.7611 C.ar    1  UNL1        0.0568
      7 C         140.9508  137.6448  164.2586 C.ar    1  UNL1        0.0078
      8 C         140.7751  137.4227  162.7856 C.ar    1  UNL1        0.0402
      9 C         141.1373  138.5076  161.8151 C.ar    1  UNL1        0.1724
     10 O         140.9616  138.2855  160.3420 O.3     1  UNL1       -0.4684
     11 C         139.6324  138.5461  159.6976 C.3     1  UNL1        0.2526
     12 O         142.0374  140.8994  161.3471 O.3     1  UNL1       -0.4723
     13 C         141.0325  141.9552  160.9931 C.3     1  UNL1        0.2082
     14 C         139.6220  141.8454  161.4916 C.3     1  UNL1        0.0794
     15 C         138.9527  143.0336  162.1164 C.3     1  UNL1        0.1461
     16 C         139.4888  145.5753  162.1656 C.3     1  UNL1        0.1741
     17 O         138.9948  144.3659  161.4285 O.3     1  UNL1       -0.3510
     18 C         139.1440  139.7682  166.4451 C.3     1  UNL1        0.0757
     19 C         138.8650  140.9882  165.6181 C.3     1  UNL1        0.0215
     20 C         138.0750  138.7344  166.6410 C.3     1  UNL1        0.0215
     21 C         140.6677  139.8042  168.5491 C.3     1  UNL1        0.0950
     22 C         140.5828  141.1912  169.1139 C.3     1  UNL1        0.0373
     23 C         139.4957  141.7156  170.0046 C.3     1  UNL1        0.0703
     24 N         139.8111  143.1459  170.3282 N.3     1  UNL1       -0.2974
     25 C         141.0931  143.5056  169.6376 C.3     1  UNL1        0.0690
     26 C         141.5700  142.2975  168.8871 C.3     1  UNL1        0.0231
     27 H         139.9180  143.2571  171.3365 H       1  UNL1        0.1232
     28 C         142.8156  142.2111  168.0557 C.3     1  UNL1        0.0278
     29 C         142.8098  142.7115  166.6417 C.ar    1  UNL1       -0.0221
     30 C         144.1042  142.8999  165.9075 C.ar    1  UNL1       -0.0043
     31 C         144.0983  143.4004  164.4934 C.ar    1  UNL1       -0.0003
     32 C         142.7982  143.7124  163.8136 C.ar    1  UNL1       -0.0000
     33 C         141.5038  143.5241  164.5478 C.ar    1  UNL1       -0.0003
     34 C         141.5096  143.0236  165.9618 C.ar    1  UNL1       -0.0043
@<TRIPOS>BOND
     1    16    17    1
     2    17    15    1
     3    15    14    1
     4    14    13    1
     5    13    12    1
     6    12     4    1
     7     4     5   ar
     8     5     6   ar
     9     6     1    1
    10     1     2    2
    11     1     3   am
    12     3    21    1
    13    22    21    1
    14    22    23    1
    15    23    24    1
    16    24    25    1
    17    25    26    1
    18    26    28    1
    19    28    29    1
    20    29    30   ar
    21    30    31   ar
    22    31    32   ar
    23    32    33   ar
    24    33    34   ar
    25     3    18    1
    26    18    19    1
    27    18    20    1
    28     6     7   ar
    29     7     8   ar
    30     8     9   ar
    31     9    10    1
    32    10    11    1
    33     9     4   ar
    34    26    22    1
    35    34    29   ar
    36    24    27    1
@<TRIPOS>MOLECULE
*****
 34 36 0 0 0
SMALL
GASTEIGER

@<TRIPOS>ATOM
      1 C         141.2643  142.8308  166.5178 C.2     1  UNL1        0.2491
      2 O         140.4096  142.8805  167.7494 O.2     1  UNL1       -0.2699
      3 N         142.7397  142.5884  166.6380 N.am    1  UNL1       -0.2777
      4 C         139.7215  142.0273  162.9507 C.ar    1  UNL1        0.1723
      5 C         140.3422  141.8346  164.3026 C.ar    1  UNL1        0.0446
      6 C         140.6437  143.0236  165.1659 C.ar    1  UNL1        0.0568
      7 C         140.3245  144.4054  164.6773 C.ar    1  UNL1        0.0078
      8 C         139.7039  144.5981  163.3254 C.ar    1  UNL1        0.0402
      9 C         139.4024  143.4091  162.4621 C.ar    1  UNL1        0.1724
     10 O         138.7817  143.6019  161.1102 O.3     1  UNL1       -0.4684
     11 C         139.6424  143.5934  159.8817 C.3     1  UNL1        0.2526
     12 O         139.4200  140.8383  162.0874 O.3     1  UNL1       -0.4723
     13 C         138.0039  140.3733  161.9192 C.3     1  UNL1        0.2082
     14 C         137.7239  138.9966  161.3935 C.3     1  UNL1        0.0794
     15 C         138.8571  138.1142  160.9607 C.3     1  UNL1        0.1461
     16 C         140.9557  138.8016  159.5920 C.3     1  UNL1        0.1741
     17 O         139.5268  138.3477  159.6390 O.3     1  UNL1       -0.3510
     18 C         143.5944  142.5387  165.4063 C.3     1  UNL1        0.0757
     19 C         143.8934  141.2218  164.7534 C.3     1  UNL1        0.0215
     20 C         144.1502  143.8061  164.8275 C.3     1  UNL1        0.0215
     21 C         143.3604  142.3956  167.9899 C.3     1  UNL1        0.0950
     22 C         142.7799  141.3962  168.9461 C.3     1  UNL1        0.0373
     23 C         142.5084  141.6250  170.4034 C.3     1  UNL1        0.0703
     24 N         141.9297  140.3628  170.9709 N.3     1  UNL1       -0.2974
     25 C         141.8436  139.3539  169.8642 C.3     1  UNL1        0.0690
     26 C         142.3690  139.9926  168.6128 C.3     1  UNL1        0.0231
     27 H         140.9988  140.5465  171.3451 H       1  UNL1        0.1232
     28 C         142.4664  139.3419  167.2648 C.3     1  UNL1        0.0278
     29 C         141.2206  139.0396  166.4861 C.ar    1  UNL1       -0.0221
     30 C         141.3108  138.3001  165.1842 C.ar    1  UNL1       -0.0043
     31 C         140.0649  137.9977  164.4055 C.ar    1  UNL1       -0.0003
     32 C         138.7289  138.4348  164.9287 C.ar    1  UNL1       -0.0000
     33 C         138.6386  139.1744  166.2306 C.ar    1  UNL1       -0.0003
     34 C         139.8845  139.4767  167.0093 C.ar    1  UNL1       -0.0043
@<TRIPOS>BOND
     1    16    17    1
     2    17    15    1
     3    15    14    1
     4    14    13    1
     5    13    12    1
     6    12     4    1
     7     4     5   ar
     8     5     6   ar
     9     6     1    1
    10     1     2    2
    11     1     3   am
    12     3    21    1
    13    22    21    1
    14    22    23    1
    15    23    24    1
    16    24    25    1
    17    25    26    1
    18    26    28    1
    19    28    29    1
    20    29    30   ar
    21    30    31   ar
    22    31    32   ar
    23    32    33   ar
    24    33    34   ar
    25     3    18    1
    26    18    19    1
    27    18    20    1
    28     6     7   ar
    29     7     8   ar
    30     8     9   ar
    31     9    10    1
    32    10    11    1
    33     9     4   ar
    34    26    22    1
    35    34    29   ar
    36    24    27    1
@<TRIPOS>MOLECULE
*****
 34 36 0 0 0
SMALL
GASTEIGER

@<TRIPOS>ATOM
      1 C         141.3003  143.1902  165.1913 C.2     1  UNL1        0.2491
      2 O         142.7458  143.0955  164.8021 O.2     1  UNL1       -0.2699
      3 N         140.3880  144.1332  164.4643 N.am    1  UNL1       -0.2777
      4 C         139.5011  140.2216  167.1150 C.ar    1  UNL1        0.1723
      5 C         140.0344  141.0699  165.9988 C.ar    1  UNL1        0.0446
      6 C         140.7670  142.3419  166.3076 C.ar    1  UNL1        0.0568
      7 C         140.9663  142.7655  167.7326 C.ar    1  UNL1        0.0078
      8 C         140.4331  141.9172  168.8488 C.ar    1  UNL1        0.0402
      9 C         139.7005  140.6453  168.5400 C.ar    1  UNL1        0.1724
     10 O         139.1672  139.7969  169.6563 O.3     1  UNL1       -0.4684
     11 C         139.8544  139.7932  170.9896 C.3     1  UNL1        0.2526
     12 O         138.7685  138.9496  166.8062 O.3     1  UNL1       -0.4723
     13 C         138.6149  138.4990  165.3838 C.3     1  UNL1        0.2082
     14 C         139.5456  137.4668  164.8193 C.3     1  UNL1        0.0794
     15 C         140.9262  137.8598  164.3839 C.3     1  UNL1        0.1461
     16 C         143.0526  139.1532  165.1292 C.3     1  UNL1        0.1741
     17 O         141.9855  138.1368  165.4091 O.3     1  UNL1       -0.3510
     18 C         138.9425  144.2279  164.8536 C.3     1  UNL1        0.0757
     19 C         137.9139  143.4185  164.1210 C.3     1  UNL1        0.0215
     20 C         138.5256  145.1319  165.9756 C.3     1  UNL1        0.0215
     21 C         140.9212  144.9815  163.3481 C.3     1  UNL1        0.0950
     22 C         140.5646  144.6615  161.9267 C.3     1  UNL1        0.0373
     23 C         140.0989  145.6427  160.8922 C.3     1  UNL1        0.0703
     24 N         139.8576  144.8917  159.6163 N.3     1  UNL1       -0.2974
     25 C         140.1742  143.4463  159.8623 C.3     1  UNL1        0.0690
     26 C         140.6111  143.3040  161.2902 C.3     1  UNL1        0.0231
     27 H         140.4609  145.2577  158.8798 H       1  UNL1        0.1232
     28 C         141.0224  142.0282  161.9634 C.3     1  UNL1        0.0278
     29 C         140.2558  140.7645  161.7082 C.ar    1  UNL1       -0.0221
     30 C         138.8281  140.6504  162.1538 C.ar    1  UNL1       -0.0043
     31 C         138.0615  139.3866  161.8985 C.ar    1  UNL1       -0.0003
     32 C         138.7225  138.2370  161.1976 C.ar    1  UNL1       -0.0000
     33 C         140.1503  138.3510  160.7520 C.ar    1  UNL1       -0.0003
     34 C         140.9169  139.6148  161.0073 C.ar    1  UNL1       -0.0043
@<TRIPOS>BOND
     1    16    17    1
     2    17    15    1
     3    15    14    1
     4    14    13    1
     5    13    12    1
     6    12     4    1
     7     4     5   ar
     8     5     6   ar
     9     6     1    1
    10     1     2    2
    11     1     3   am
    12     3    21    1
    13    22    21    1
    14    22    23    1
    15    23    24    1
    16    24    25    1
    17    25    26    1
    18    26    28    1
    19    28    29    1
    20    29    30   ar
    21    30    31   ar
    22    31    32   ar
    23    32    33   ar
    24    33    34   ar
    25     3    18    1
    26    18    19    1
    27    18    20    1
    28     6     7   ar
    29     7     8   ar
    30     8     9   ar
    31     9    10    1
    32    10    11    1
    33     9     4   ar
    34    26    22    1
    35    34    29   ar
    36    24    27    1
@<TRIPOS>MOLECULE
*****
 34 36 0 0 0
SMALL
GASTEIGER

@<TRIPOS>ATOM
      1 C         141.7399  139.5727  163.8374 C.2     1  UNL1        0.2491
      2 O         140.6859  138.5064  163.8839 O.2     1  UNL1       -0.2699
      3 N         142.7005  139.7281  164.9789 N.am    1  UNL1       -0.2777
      4 C         141.1468  142.6755  161.4351 C.ar    1  UNL1        0.1723
      5 C         141.0534  141.7646  162.6231 C.ar    1  UNL1        0.0446
      6 C         141.8334  140.4836  162.6492 C.ar    1  UNL1        0.0568
      7 C         142.7067  140.1135  161.4873 C.ar    1  UNL1        0.0078
      8 C         142.8001  141.0244  160.2992 C.ar    1  UNL1        0.0402
      9 C         142.0202  142.3054  160.2731 C.ar    1  UNL1        0.1724
     10 O         142.1136  143.2163  159.0850 O.3     1  UNL1       -0.4684
     11 C         141.0946  143.1251  157.9881 C.3     1  UNL1        0.2526
     12 O         140.3669  143.9565  161.4090 O.3     1  UNL1       -0.4723
     13 C         141.0324  145.2476  161.7833 C.3     1  UNL1        0.2082
     14 C         141.5242  145.4592  163.1845 C.3     1  UNL1        0.0794
     15 C         142.9375  145.1084  163.5443 C.3     1  UNL1        0.1461
     16 C         144.6052  143.5778  162.2691 C.3     1  UNL1        0.1741
     17 O         143.9613  144.9183  162.4645 O.3     1  UNL1       -0.3510
     18 C         143.7545  140.7944  164.9323 C.3     1  UNL1        0.0757
     19 C         145.0653  140.5242  164.2550 C.3     1  UNL1        0.0215
     20 C         143.4977  142.1309  165.5631 C.3     1  UNL1        0.0215
     21 C         142.6071  138.8173  166.1670 C.3     1  UNL1        0.0950
     22 C         142.0268  139.3217  167.4550 C.3     1  UNL1        0.0373
     23 C         142.7495  139.4305  168.7648 C.3     1  UNL1        0.0703
     24 N         141.7913  139.9819  169.7786 N.3     1  UNL1       -0.2974
     25 C         140.4763  140.2138  169.0953 C.3     1  UNL1        0.0690
     26 C         140.6218  139.8058  167.6592 C.3     1  UNL1        0.0231
     27 H         142.1486  140.8622  170.1497 H       1  UNL1        0.1232
     28 C         139.5505  139.8705  166.6114 C.3     1  UNL1        0.0278
     29 C         139.2304  141.1759  165.9456 C.ar    1  UNL1       -0.0221
     30 C         140.0087  142.4087  166.2987 C.ar    1  UNL1       -0.0043
     31 C         139.6885  143.7141  165.6328 C.ar    1  UNL1       -0.0003
     32 C         138.5902  143.7869  164.6139 C.ar    1  UNL1       -0.0000
     33 C         137.8119  142.5541  164.2607 C.ar    1  UNL1       -0.0003
     34 C         138.1320  141.2487  164.9266 C.ar    1  UNL1       -0.0043
@<TRIPOS>BOND
     1    16    17    1
     2    17    15    1
     3    15    14    1
     4    14    13    1
     5    13    12    1
     6    12     4    1
     7     4     5   ar
     8     5     6   ar
     9     6     1    1
    10     1     2    2
    11     1     3   am
    12     3    21    1
    13    22    21    1
    14    22    23    1
    15    23    24    1
    16    24    25    1
    17    25    26    1
    18    26    28    1
    19    28    29    1
    20    29    30   ar
    21    30    31   ar
    22    31    32   ar
    23    32    33   ar
    24    33    34   ar
    25     3    18    1
    26    18    19    1
    27    18    20    1
    28     6     7   ar
    29     7     8   ar
    30     8     9   ar
    31     9    10    1
    32    10    11    1
    33     9     4   ar
    34    26    22    1
    35    34    29   ar
    36    24    27    1
@<TRIPOS>MOLECULE
*****
 34 36 0 0 0
SMALL
GASTEIGER

@<TRIPOS>ATOM
      1 C         138.1737  140.4878  163.2714 C.2     1  UNL1        0.2491
      2 O         136.9586  141.2944  162.9209 O.2     1  UNL1       -0.2699
      3 N         138.9849  139.8435  162.1865 N.am    1  UNL1       -0.2777
      4 C         139.9216  141.1474  166.7728 C.ar    1  UNL1        0.1723
      5 C         139.5176  141.3098  165.3374 C.ar    1  UNL1        0.0446
      6 C         138.5777  140.3254  164.7068 C.ar    1  UNL1        0.0568
      7 C         138.0418  139.1787  165.5117 C.ar    1  UNL1        0.0078
      8 C         138.4458  139.0164  166.9471 C.ar    1  UNL1        0.0402
      9 C         139.3857  140.0007  167.5776 C.ar    1  UNL1        0.1724
     10 O         139.7897  139.8383  169.0131 O.3     1  UNL1       -0.4684
     11 C         139.0384  140.5631  170.0902 C.3     1  UNL1        0.2526
     12 O         140.8615  142.1318  167.4033 O.3     1  UNL1       -0.4723
     13 C         142.3342  141.8484  167.4347 C.3     1  UNL1        0.2082
     14 C         143.2074  142.2903  166.2979 C.3     1  UNL1        0.0794
     15 C         143.6478  141.2995  165.2614 C.3     1  UNL1        0.1461
     16 C         145.7553  141.5309  163.7598 C.3     1  UNL1        0.1741
     17 O         144.2944  141.7765  163.9947 O.3     1  UNL1       -0.3510
     18 C         140.2000  139.0369  162.5371 C.3     1  UNL1        0.0757
     19 C         141.5431  139.7001  162.6166 C.3     1  UNL1        0.0215
     20 C         140.0720  137.5672  162.8081 C.3     1  UNL1        0.0215
     21 C         138.5810  140.0059  160.7511 C.3     1  UNL1        0.0950
     22 C         139.4890  140.7174  159.7923 C.3     1  UNL1        0.0373
     23 C         140.3892  140.0678  158.7835 C.3     1  UNL1        0.0703
     24 N         141.1128  141.1523  158.0416 N.3     1  UNL1       -0.2974
     25 C         140.6598  142.4721  158.5920 C.3     1  UNL1        0.0690
     26 C         139.6563  142.2033  159.6739 C.3     1  UNL1        0.0231
     27 H         140.8924  141.0979  157.0472 H       1  UNL1        0.1232
     28 C         138.9448  143.2387  160.4936 C.3     1  UNL1        0.0278
     29 C         139.5193  143.6804  161.8069 C.ar    1  UNL1       -0.0221
     30 C         140.9614  143.4141  162.1223 C.ar    1  UNL1       -0.0043
     31 C         141.5359  143.8558  163.4356 C.ar    1  UNL1       -0.0003
     32 C         140.6683  144.5638  164.4336 C.ar    1  UNL1       -0.0000
     33 C         139.2262  144.8301  164.1183 C.ar    1  UNL1       -0.0003
     34 C         138.6517  144.3884  162.8049 C.ar    1  UNL1       -0.0043
@<TRIPOS>BOND
     1    16    17    1
     2    17    15    1
     3    15    14    1
     4    14    13    1
     5    13    12    1
     6    12     4    1
     7     4     5   ar
     8     5     6   ar
     9     6     1    1
    10     1     2    2
    11     1     3   am
    12     3    21    1
    13    22    21    1
    14    22    23    1
    15    23    24    1
    16    24    25    1
    17    25    26    1
    18    26    28    1
    19    28    29    1
    20    29    30   ar
    21    30    31   ar
    22    31    32   ar
    23    32    33   ar
    24    33    34   ar
    25     3    18    1
    26    18    19    1
    27    18    20    1
    28     6     7   ar
    29     7     8   ar
    30     8     9   ar
    31     9    10    1
    32    10    11    1
    33     9     4   ar
    34    26    22    1
    35    34    29   ar
    36    24    27    1
@<TRIPOS>MOLECULE
*****
 34 36 0 0 0
SMALL
GASTEIGER

@<TRIPOS>ATOM
      1 C         141.3099  139.9337  162.8529 C.2     1  UNL1        0.2491
      2 O         142.4263  140.0524  163.8477 O.2     1  UNL1       -0.2699
      3 N         140.2371  138.9038  163.0488 N.am    1  UNL1       -0.2777
      4 C         140.4057  143.0132  160.5185 C.ar    1  UNL1        0.1723
      5 C         140.4493  142.1020  161.7092 C.ar    1  UNL1        0.0446
      6 C         141.2664  140.8449  161.6621 C.ar    1  UNL1        0.0568
      7 C         142.0399  140.4991  160.4244 C.ar    1  UNL1        0.0078
      8 C         141.9963  141.4103  159.2337 C.ar    1  UNL1        0.0402
      9 C         141.1792  142.6673  159.2808 C.ar    1  UNL1        0.1724
     10 O         141.1357  143.5785  158.0900 O.3     1  UNL1       -0.4684
     11 C         142.1948  144.6249  157.9072 C.3     1  UNL1        0.2526
     12 O         139.5887  144.2702  160.5656 O.3     1  UNL1       -0.4723
     13 C         140.2259  145.5640  160.9779 C.3     1  UNL1        0.2082
     14 C         140.6137  145.7862  162.4098 C.3     1  UNL1        0.0794
     15 C         141.8889  145.2013  162.9409 C.3     1  UNL1        0.1461
     16 C         144.0905  143.8933  162.5028 C.3     1  UNL1        0.1741
     17 O         142.9416  144.7110  161.9915 O.3     1  UNL1       -0.3510
     18 C         139.1208  138.7851  162.0539 C.3     1  UNL1        0.0757
     19 C         139.3000  137.9486  160.8218 C.3     1  UNL1        0.0215
     20 C         137.8252  139.5029  162.2912 C.3     1  UNL1        0.0215
     21 C         140.2806  137.9926  164.2395 C.3     1  UNL1        0.0950
     22 C         139.2851  138.1602  165.3489 C.3     1  UNL1        0.0373
     23 C         138.2598  137.1510  165.7734 C.3     1  UNL1        0.0703
     24 N         137.4811  137.7335  166.9155 N.3     1  UNL1       -0.2974
     25 C         138.0253  139.1027  167.1970 C.3     1  UNL1        0.0690
     26 C         139.1402  139.3664  166.2287 C.3     1  UNL1        0.0231
     27 H         137.5842  137.1436  167.7412 H       1  UNL1        0.1232
     28 C         139.9653  140.6168  166.1536 C.3     1  UNL1        0.0278
     29 C         139.3589  141.8853  165.6310 C.ar    1  UNL1       -0.0221
     30 C         138.2184  141.8264  164.6586 C.ar    1  UNL1       -0.0043
     31 C         137.6120  143.0950  164.1361 C.ar    1  UNL1       -0.0003
     32 C         138.1461  144.4224  164.5860 C.ar    1  UNL1       -0.0000
     33 C         139.2867  144.4814  165.5585 C.ar    1  UNL1       -0.0003
     34 C         139.8931  143.2128  166.0810 C.ar    1  UNL1       -0.0043
@<TRIPOS>BOND
     1    16    17    1
     2    17    15    1
     3    15    14    1
     4    14    13    1
     5    13    12    1
     6    12     4    1
     7     4     5   ar
     8     5     6   ar
     9     6     1    1
    10     1     2    2
    11     1     3   am
    12     3    21    1
    13    22    21    1
    14    22    23    1
    15    23    24    1
    16    24    25    1
    17    25    26    1
    18    26    28    1
    19    28    29    1
    20    29    30   ar
    21    30    31   ar
    22    31    32   ar
    23    32    33   ar
    24    33    34   ar
    25     3    18    1
    26    18    19    1
    27    18    20    1
    28     6     7   ar
    29     7     8   ar
    30     8     9   ar
    31     9    10    1
    32    10    11    1
    33     9     4   ar
    34    26    22    1
    35    34    29   ar
    36    24    27    1
@<TRIPOS>MOLECULE
*****
 34 36 0 0 0
SMALL
GASTEIGER

@<TRIPOS>ATOM
      1 C         139.6917  142.0829  165.8993 C.2     1  UNL1        0.2491
      2 O         139.9652  143.4437  166.4678 O.2     1  UNL1       -0.2699
      3 N         139.6644  140.8847  166.8013 N.am    1  UNL1       -0.2777
      4 C         140.3552  141.7263  162.0028 C.ar    1  UNL1        0.1723
      5 C         140.6015  141.8891  163.4734 C.ar    1  UNL1        0.0446
      6 C         139.4453  141.9201  164.4286 C.ar    1  UNL1        0.0568
      7 C         138.0429  141.7885  163.9131 C.ar    1  UNL1        0.0078
      8 C         137.7966  141.6257  162.4424 C.ar    1  UNL1        0.0402
      9 C         138.9528  141.5947  161.4873 C.ar    1  UNL1        0.1724
     10 O         138.7065  141.4319  160.0166 O.3     1  UNL1       -0.4684
     11 C         138.4883  142.6399  159.1545 C.3     1  UNL1        0.2526
     12 O         141.5114  141.6953  161.0476 O.3     1  UNL1       -0.4723
     13 C         141.9462  142.9528  160.3552 C.3     1  UNL1        0.2082
     14 C         141.7077  144.2855  161.0011 C.3     1  UNL1        0.0794
     15 C         140.8161  145.2922  160.3365 C.3     1  UNL1        0.1461
     16 C         139.2228  145.2653  162.3884 C.3     1  UNL1        0.1741
     17 O         139.6469  145.8656  161.0808 O.3     1  UNL1       -0.3510
     18 C         139.3908  139.5239  166.2327 C.3     1  UNL1        0.0757
     19 C         140.4722  138.7854  165.5012 C.3     1  UNL1        0.0215
     20 C         138.0358  138.9015  166.3957 C.3     1  UNL1        0.0215
     21 C         139.9107  141.0474  168.2720 C.3     1  UNL1        0.0950
     22 C         141.1561  141.7314  168.7527 C.3     1  UNL1        0.0373
     23 C         141.2421  142.7143  169.8826 C.3     1  UNL1        0.0703
     24 N         142.6733  143.1430  170.0161 N.3     1  UNL1       -0.2974
     25 C         143.4719  142.4251  168.9688 C.3     1  UNL1        0.0690
     26 C         142.5342  141.5527  168.1880 C.3     1  UNL1        0.0231
     27 H         143.0220  142.9011  170.9437 H       1  UNL1        0.1232
     28 C         142.9089  140.6585  167.0434 C.3     1  UNL1        0.0278
     29 C         143.4169  141.2522  165.7631 C.ar    1  UNL1       -0.0221
     30 C         143.4661  142.7419  165.5945 C.ar    1  UNL1       -0.0043
     31 C         143.9742  143.3354  164.3141 C.ar    1  UNL1       -0.0003
     32 C         144.4331  142.4394  163.2022 C.ar    1  UNL1       -0.0000
     33 C         144.3840  140.9496  163.3706 C.ar    1  UNL1       -0.0003
     34 C         143.8759  140.3561  164.6511 C.ar    1  UNL1       -0.0043
@<TRIPOS>BOND
     1    16    17    1
     2    17    15    1
     3    15    14    1
     4    14    13    1
     5    13    12    1
     6    12     4    1
     7     4     5   ar
     8     5     6   ar
     9     6     1    1
    10     1     2    2
    11     1     3   am
    12     3    21    1
    13    22    21    1
    14    22    23    1
    15    23    24    1
    16    24    25    1
    17    25    26    1
    18    26    28    1
    19    28    29    1
    20    29    30   ar
    21    30    31   ar
    22    31    32   ar
    23    32    33   ar
    24    33    34   ar
    25     3    18    1
    26    18    19    1
    27    18    20    1
    28     6     7   ar
    29     7     8   ar
    30     8     9   ar
    31     9    10    1
    32    10    11    1
    33     9     4   ar
    34    26    22    1
    35    34    29   ar
    36    24    27    1
@<TRIPOS>MOLECULE
*****
 34 36 0 0 0
SMALL
GASTEIGER

@<TRIPOS>ATOM
      1 C         142.3539  140.8990  163.5782 C.2     1  UNL1        0.2491
      2 O         141.1790  139.9782  163.7253 O.2     1  UNL1       -0.2699
      3 N         143.2119  141.2160  164.7671 N.am    1  UNL1       -0.2777
      4 C         142.5642  143.5127  160.5992 C.ar    1  UNL1        0.1723
      5 C         142.2473  142.9088  161.9352 C.ar    1  UNL1        0.0446
      6 C         142.6708  141.5029  162.2422 C.ar    1  UNL1        0.0568
      7 C         143.4113  140.7011  161.2133 C.ar    1  UNL1        0.0078
      8 C         143.7281  141.3050  159.8773 C.ar    1  UNL1        0.0402
      9 C         143.3046  142.7108  159.5703 C.ar    1  UNL1        0.1724
     10 O         143.6215  143.3148  158.2343 O.3     1  UNL1       -0.4684
     11 C         144.2657  142.4798  157.1676 C.3     1  UNL1        0.2526
     12 O         142.1407  144.9185  160.2922 O.3     1  UNL1       -0.4723
     13 C         140.7053  145.2172  159.9753 C.3     1  UNL1        0.2082
     14 C         140.1377  144.8387  158.6395 C.3     1  UNL1        0.0794
     15 C         139.5076  143.4910  158.4469 C.3     1  UNL1        0.1461
     16 C         138.8876  141.9642  160.4554 C.3     1  UNL1        0.1741
     17 O         138.4948  142.9888  159.4328 O.3     1  UNL1       -0.3510
     18 C         144.3868  142.1369  164.6199 C.3     1  UNL1        0.0757
     19 C         144.2725  143.5718  165.0417 C.3     1  UNL1        0.0215
     20 C         145.6760  141.6228  164.0509 C.3     1  UNL1        0.0215
     21 C         142.8950  140.6121  166.1030 C.3     1  UNL1        0.0950
     22 C         142.3092  141.4628  167.1907 C.3     1  UNL1        0.0373
     23 C         143.0395  141.9826  168.3934 C.3     1  UNL1        0.0703
     24 N         142.0719  142.7842  169.2127 N.3     1  UNL1       -0.2974
     25 C         140.7436  142.7598  168.5163 C.3     1  UNL1        0.0690
     26 C         140.8903  141.9432  167.2667 C.3     1  UNL1        0.0231
     27 H         142.4019  143.7458  169.2953 H       1  UNL1        0.1232
     28 C         139.8080  141.6572  166.2683 C.3     1  UNL1        0.0278
     29 C         139.4342  142.6929  165.2498 C.ar    1  UNL1       -0.0221
     30 C         138.1306  142.5867  164.5154 C.ar    1  UNL1       -0.0043
     31 C         137.7569  143.6225  163.4969 C.ar    1  UNL1       -0.0003
     32 C         138.6868  144.7647  163.2128 C.ar    1  UNL1       -0.0000
     33 C         139.9905  144.8710  163.9471 C.ar    1  UNL1       -0.0003
     34 C         140.3641  143.8352  164.9656 C.ar    1  UNL1       -0.0043
@<TRIPOS>BOND
     1    16    17    1
     2    17    15    1
     3    15    14    1
     4    14    13    1
     5    13    12    1
     6    12     4    1
     7     4     5   ar
     8     5     6   ar
     9     6     1    1
    10     1     2    2
    11     1     3   am
    12     3    21    1
    13    22    21    1
    14    22    23    1
    15    23    24    1
    16    24    25    1
    17    25    26    1
    18    26    28    1
    19    28    29    1
    20    29    30   ar
    21    30    31   ar
    22    31    32   ar
    23    32    33   ar
    24    33    34   ar
    25     3    18    1
    26    18    19    1
    27    18    20    1
    28     6     7   ar
    29     7     8   ar
    30     8     9   ar
    31     9    10    1
    32    10    11    1
    33     9     4   ar
    34    26    22    1
    35    34    29   ar
    36    24    27    1
