@<TRIPOS>MOLECULE
*****
 37 41 0 0 0
SMALL
GASTEIGER

@<TRIPOS>ATOM
      1 C         140.2364  139.9606  157.8963 C.3     1  UNL1        0.0344
      2 C         141.0809  139.2906  158.9394 C.ar    1  UNL1        0.0197
      3 C         142.0763  138.1948  158.6975 C.ar    1  UNL1        0.1518
      4 N         142.6888  137.8258  160.0161 N.ar    1  UNL1       -0.1608
      5 N         142.0720  138.6934  161.0728 N.ar    1  UNL1       -0.2290
      6 C         141.0782  139.5987  160.4074 C.ar    1  UNL1        0.0804
      7 C         142.3926  138.6613  162.5379 C.ar    1  UNL1        0.0933
      8 C         143.6587  139.2879  163.0424 C.ar    1  UNL1        0.0209
      9 C         143.9793  139.2558  164.5073 C.ar    1  UNL1        0.0130
     10 C         143.0340  138.5972  165.4677 C.ar    1  UNL1        0.0586
     11 CL        143.3546  138.5651  166.9328 Cl      1  UNL1       -0.0822
     12 C         141.7679  137.9706  164.9632 C.ar    1  UNL1        0.0243
     13 C         141.4472  138.0027  163.4983 C.ar    1  UNL1        0.0761
     14 CL        140.1812  137.3761  162.9938 Cl      1  UNL1       -0.0806
     15 C         140.2306  140.6309  161.0901 C.ar    1  UNL1        0.0175
     16 C         140.8276  141.9481  161.4880 C.ar    1  UNL1        0.0024
     17 C         139.9800  142.9803  162.1706 C.ar    1  UNL1        0.0114
     18 C         138.5351  142.6953  162.4554 C.ar    1  UNL1        0.0577
     19 CL        137.6875  143.7275  163.1381 Cl      1  UNL1       -0.0822
     20 C         137.9380  141.3780  162.0575 C.ar    1  UNL1        0.0114
     21 C         138.7856  140.3458  161.3749 C.ar    1  UNL1        0.0024
     22 C         142.4020  137.5767  157.3702 C.2     1  UNL1        0.2653
     23 O         143.7171  137.8676  156.7099 O.2     1  UNL1       -0.2684
     24 N         141.4126  136.6678  156.7032 N.am    1  UNL1       -0.2962
     25 H         140.5495  136.4769  157.1365 H       1  UNL1        0.1501
     26 C         141.7383  136.0497  155.3758 C.3     1  UNL1        0.1126
     27 C         141.8760  135.8910  153.8906 C.3     1  UNL1        0.0276
     28 C         141.3099  137.1580  154.4602 C.3     1  UNL1        0.0276
     29 C         142.2798  134.7268  155.8304 C.ar    1  UNL1        0.1964
     30 N         141.6552  133.3859  155.5813 N.ar    1  UNL1       -0.0587
     31 O         142.5303  132.3428  156.2108 O.2     1  UNL1       -0.3285
     32 C         143.6957  133.0390  156.8488 C.ar    1  UNL1        0.3317
     33 N         143.5409  134.5123  156.6137 N.ar    1  UNL1       -0.1862
     34 C         144.8188  132.3779  157.5916 C.3     1  UNL1        0.4721
     35 F         145.9418  131.7169  158.3344 F       1  UNL1       -0.1619
     36 F         144.7463  133.4410  158.6473 F       1  UNL1       -0.1619
     37 F         144.8913  131.3148  156.5359 F       1  UNL1       -0.1619
@<TRIPOS>BOND
     1     1     2    1
     2     2     3   ar
     3     3    22    1
     4    22    23    2
     5    22    24   am
     6    24    26    1
     7    26    29    1
     8    29    30   ar
     9    30    31   ar
    10    31    32   ar
    11    32    34    1
    12    34    35    1
    13    34    36    1
    14    34    37    1
    15    32    33   ar
    16    26    27    1
    17    27    28    1
    18     3     4   ar
    19     4     5   ar
    20     5     7    1
    21     7     8   ar
    22     8     9   ar
    23     9    10   ar
    24    10    11    1
    25    10    12   ar
    26    12    13   ar
    27    13    14    1
    28     5     6   ar
    29     6    15    1
    30    15    16   ar
    31    16    17   ar
    32    17    18   ar
    33    18    19    1
    34    18    20   ar
    35    20    21   ar
    36     6     2   ar
    37    21    15   ar
    38    28    26    1
    39    13     7   ar
    40    33    29   ar
    41    24    25    1
@<TRIPOS>MOLECULE
*****
 37 41 0 0 0
SMALL
GASTEIGER

@<TRIPOS>ATOM
      1 C         143.7158  140.3547  159.4668 C.3     1  UNL1        0.0344
      2 C         142.5229  139.7183  160.1164 C.ar    1  UNL1        0.0197
      3 C         141.5828  138.7437  159.4710 C.ar    1  UNL1        0.1518
      4 N         140.5396  138.3678  160.4811 N.ar    1  UNL1       -0.1608
      5 N         140.8350  139.1100  161.7508 N.ar    1  UNL1       -0.2290
      6 C         142.0607  139.9446  161.5253 C.ar    1  UNL1        0.0804
      7 C         140.0435  139.0313  163.0226 C.ar    1  UNL1        0.0933
      8 C         139.0632  140.1142  163.3641 C.ar    1  UNL1        0.0209
      9 C         138.2718  140.0356  164.6358 C.ar    1  UNL1        0.0130
     10 C         138.4605  138.8741  165.5660 C.ar    1  UNL1        0.0586
     11 CL        137.6690  138.7955  166.8378 Cl      1  UNL1       -0.0822
     12 C         139.4407  137.7913  165.2245 C.ar    1  UNL1        0.0243
     13 C         140.2322  137.8699  163.9528 C.ar    1  UNL1        0.0761
     14 CL        141.2124  136.7870  163.6113 Cl      1  UNL1       -0.0806
     15 C         142.7103  140.8472  162.5320 C.ar    1  UNL1        0.0175
     16 C         142.1620  142.2229  162.7699 C.ar    1  UNL1        0.0024
     17 C         142.8116  143.1255  163.7766 C.ar    1  UNL1        0.0114
     18 C         144.0095  142.6523  164.5454 C.ar    1  UNL1        0.0577
     19 CL        144.6590  143.5549  165.5521 Cl      1  UNL1       -0.0822
     20 C         144.5578  141.2765  164.3075 C.ar    1  UNL1        0.0114
     21 C         143.9082  140.3739  163.3008 C.ar    1  UNL1        0.0024
     22 C         141.6705  138.2345  158.0628 C.2     1  UNL1        0.2653
     23 O         140.4310  138.1293  157.2247 O.2     1  UNL1       -0.2684
     24 N         142.9978  137.8304  157.4928 N.am    1  UNL1       -0.2962
     25 H         143.8114  137.8994  158.0428 H       1  UNL1        0.1501
     26 C         143.0856  137.3212  156.0846 C.3     1  UNL1        0.1126
     27 C         143.2314  137.3227  154.5917 C.3     1  UNL1        0.0276
     28 C         143.2835  138.6149  155.3516 C.3     1  UNL1        0.0276
     29 C         142.9181  135.8507  156.3284 C.ar    1  UNL1        0.1964
     30 N         141.7321  135.0210  155.9344 N.ar    1  UNL1       -0.0587
     31 O         141.9882  133.6092  156.3716 O.2     1  UNL1       -0.3285
     32 C         143.3324  133.5662  157.0357 C.ar    1  UNL1        0.3317
     33 N         143.9072  134.9515  157.0091 N.ar    1  UNL1       -0.1862
     34 C         143.9871  132.3512  157.6234 C.3     1  UNL1        0.4721
     35 F         144.6418  131.1363  158.2110 F       1  UNL1       -0.1619
     36 F         143.0041  131.4745  156.9058 F       1  UNL1       -0.1619
     37 F         144.9702  133.2280  158.3409 F       1  UNL1       -0.1619
@<TRIPOS>BOND
     1     1     2    1
     2     2     3   ar
     3     3    22    1
     4    22    23    2
     5    22    24   am
     6    24    26    1
     7    26    29    1
     8    29    30   ar
     9    30    31   ar
    10    31    32   ar
    11    32    34    1
    12    34    35    1
    13    34    36    1
    14    34    37    1
    15    32    33   ar
    16    26    27    1
    17    27    28    1
    18     3     4   ar
    19     4     5   ar
    20     5     7    1
    21     7     8   ar
    22     8     9   ar
    23     9    10   ar
    24    10    11    1
    25    10    12   ar
    26    12    13   ar
    27    13    14    1
    28     5     6   ar
    29     6    15    1
    30    15    16   ar
    31    16    17   ar
    32    17    18   ar
    33    18    19    1
    34    18    20   ar
    35    20    21   ar
    36     6     2   ar
    37    21    15   ar
    38    28    26    1
    39    13     7   ar
    40    33    29   ar
    41    24    25    1
@<TRIPOS>MOLECULE
*****
 37 41 0 0 0
SMALL
GASTEIGER

@<TRIPOS>ATOM
      1 C         139.7697  142.8514  157.3341 C.3     1  UNL1        0.0344
      2 C         139.1229  141.8305  158.2227 C.ar    1  UNL1        0.0197
      3 C         137.8874  141.0414  157.9052 C.ar    1  UNL1        0.1518
      4 N         137.5991  140.1427  159.0711 N.ar    1  UNL1       -0.1608
      5 N         138.6563  140.3765  160.1092 N.ar    1  UNL1       -0.2290
      6 C         139.5981  141.4196  159.5849 C.ar    1  UNL1        0.0804
      7 C         138.7545  139.6880  161.4383 C.ar    1  UNL1        0.0933
      8 C         139.4005  138.3379  161.5376 C.ar    1  UNL1        0.0209
      9 C         139.4988  137.6494  162.8666 C.ar    1  UNL1        0.0130
     10 C         138.9509  138.3110  164.0963 C.ar    1  UNL1        0.0586
     11 CL        139.0491  137.6225  165.4254 Cl      1  UNL1       -0.0822
     12 C         138.3049  139.6611  163.9969 C.ar    1  UNL1        0.0243
     13 C         138.2067  140.3496  162.6679 C.ar    1  UNL1        0.0761
     14 CL        137.5607  141.6998  162.5686 Cl      1  UNL1       -0.0806
     15 C         140.8035  141.9575  160.2975 C.ar    1  UNL1        0.0175
     16 C         140.7103  143.2440  161.0630 C.ar    1  UNL1        0.0024
     17 C         141.9156  143.7818  161.7757 C.ar    1  UNL1        0.0114
     18 C         143.2143  143.0330  161.7227 C.ar    1  UNL1        0.0577
     19 CL        144.4196  143.5709  162.4353 Cl      1  UNL1       -0.0822
     20 C         143.3075  141.7465  160.9571 C.ar    1  UNL1        0.0114
     21 C         142.1022  141.2086  160.2445 C.ar    1  UNL1        0.0024
     22 C         137.0818  141.1345  156.6434 C.2     1  UNL1        0.2653
     23 O         136.5973  142.4691  156.1596 O.2     1  UNL1       -0.2684
     24 N         136.7606  139.8929  155.8653 N.am    1  UNL1       -0.2962
     25 H         137.0785  139.0169  156.1829 H       1  UNL1        0.1501
     26 C         135.9549  139.9860  154.6035 C.3     1  UNL1        0.1126
     27 C         135.6274  140.0317  153.1404 C.3     1  UNL1        0.0276
     28 C         137.0520  139.8817  153.5857 C.3     1  UNL1        0.0276
     29 C         134.5782  140.1227  155.1829 C.ar    1  UNL1        0.1964
     30 N         133.5575  141.1521  154.7973 N.ar    1  UNL1       -0.0587
     31 O         132.3288  140.9197  155.6258 O.2     1  UNL1       -0.3285
     32 C         132.5901  139.7467  156.5234 C.ar    1  UNL1        0.3317
     33 N         133.9802  139.2541  156.2497 N.ar    1  UNL1       -0.1862
     34 C         131.6298  139.1677  157.5198 C.3     1  UNL1        0.4721
     35 F         130.6696  138.5889  158.5161 F       1  UNL1       -0.1619
     36 F         130.5942  140.1700  157.1040 F       1  UNL1       -0.1619
     37 F         132.6654  138.1655  157.9355 F       1  UNL1       -0.1619
@<TRIPOS>BOND
     1     1     2    1
     2     2     3   ar
     3     3    22    1
     4    22    23    2
     5    22    24   am
     6    24    26    1
     7    26    29    1
     8    29    30   ar
     9    30    31   ar
    10    31    32   ar
    11    32    34    1
    12    34    35    1
    13    34    36    1
    14    34    37    1
    15    32    33   ar
    16    26    27    1
    17    27    28    1
    18     3     4   ar
    19     4     5   ar
    20     5     7    1
    21     7     8   ar
    22     8     9   ar
    23     9    10   ar
    24    10    11    1
    25    10    12   ar
    26    12    13   ar
    27    13    14    1
    28     5     6   ar
    29     6    15    1
    30    15    16   ar
    31    16    17   ar
    32    17    18   ar
    33    18    19    1
    34    18    20   ar
    35    20    21   ar
    36     6     2   ar
    37    21    15   ar
    38    28    26    1
    39    13     7   ar
    40    33    29   ar
    41    24    25    1
@<TRIPOS>MOLECULE
*****
 37 41 0 0 0
SMALL
GASTEIGER

@<TRIPOS>ATOM
      1 C         141.4149  140.9299  158.1272 C.3     1  UNL1        0.0344
      2 C         140.3409  140.5187  159.0902 C.ar    1  UNL1        0.0197
      3 C         138.9117  140.2230  158.7434 C.ar    1  UNL1        0.1518
      4 N         138.1951  139.8525  160.0080 N.ar    1  UNL1       -0.1608
      5 N         139.1813  139.9192  161.1363 N.ar    1  UNL1       -0.2290
      6 C         140.5074  140.3309  160.5690 C.ar    1  UNL1        0.0804
      7 C         138.8920  139.6257  162.5786 C.ar    1  UNL1        0.0933
      8 C         139.1216  138.2475  163.1242 C.ar    1  UNL1        0.0209
      9 C         138.8324  137.9539  164.5664 C.ar    1  UNL1        0.0130
     10 C         138.3135  139.0387  165.4631 C.ar    1  UNL1        0.0586
     11 CL        138.0243  138.7452  166.9054 Cl      1  UNL1       -0.0822
     12 C         138.0839  140.4169  164.9175 C.ar    1  UNL1        0.0243
     13 C         138.3731  140.7105  163.4753 C.ar    1  UNL1        0.0761
     14 CL        138.1435  142.0887  162.9297 Cl      1  UNL1       -0.0806
     15 C         141.7772  140.5215  161.3445 C.ar    1  UNL1        0.0175
     16 C         142.6376  139.3387  161.6772 C.ar    1  UNL1        0.0024
     17 C         143.9074  139.5292  162.4526 C.ar    1  UNL1        0.0114
     18 C         144.3168  140.9026  162.8954 C.ar    1  UNL1        0.0577
     19 CL        145.5866  141.0931  163.6708 Cl      1  UNL1       -0.0822
     20 C         143.4564  142.0855  162.5627 C.ar    1  UNL1        0.0114
     21 C         142.1866  141.8950  161.7872 C.ar    1  UNL1        0.0024
     22 C         138.3057  140.2867  157.3728 C.2     1  UNL1        0.2653
     23 O         138.4892  139.1445  156.4178 O.2     1  UNL1       -0.2684
     24 N         137.5162  141.4925  156.9571 N.am    1  UNL1       -0.2962
     25 H         137.3958  142.2421  157.5838 H       1  UNL1        0.1501
     26 C         136.9102  141.5561  155.5864 C.3     1  UNL1        0.1126
     27 C         136.7841  141.7930  154.1106 C.3     1  UNL1        0.0276
     28 C         138.0816  142.0772  154.8077 C.3     1  UNL1        0.0276
     29 C         135.5285  141.0572  155.8891 C.ar    1  UNL1        0.1964
     30 N         134.2736  141.4408  155.1623 N.ar    1  UNL1       -0.0587
     31 O         133.1284  140.7077  155.7957 O.2     1  UNL1       -0.3285
     32 C         133.6755  139.8711  156.9140 C.ar    1  UNL1        0.3317
     33 N         135.1587  140.0870  156.9718 N.ar    1  UNL1       -0.1862
     34 C         132.8791  138.9756  157.8163 C.3     1  UNL1        0.4721
     35 F         132.0828  138.0802  158.7185 F       1  UNL1       -0.1619
     36 F         133.8700  139.2052  158.9186 F       1  UNL1       -0.1619
     37 F         131.8882  138.7461  156.7139 F       1  UNL1       -0.1619
@<TRIPOS>BOND
     1     1     2    1
     2     2     3   ar
     3     3    22    1
     4    22    23    2
     5    22    24   am
     6    24    26    1
     7    26    29    1
     8    29    30   ar
     9    30    31   ar
    10    31    32   ar
    11    32    34    1
    12    34    35    1
    13    34    36    1
    14    34    37    1
    15    32    33   ar
    16    26    27    1
    17    27    28    1
    18     3     4   ar
    19     4     5   ar
    20     5     7    1
    21     7     8   ar
    22     8     9   ar
    23     9    10   ar
    24    10    11    1
    25    10    12   ar
    26    12    13   ar
    27    13    14    1
    28     5     6   ar
    29     6    15    1
    30    15    16   ar
    31    16    17   ar
    32    17    18   ar
    33    18    19    1
    34    18    20   ar
    35    20    21   ar
    36     6     2   ar
    37    21    15   ar
    38    28    26    1
    39    13     7   ar
    40    33    29   ar
    41    24    25    1
@<TRIPOS>MOLECULE
*****
 37 41 0 0 0
SMALL
GASTEIGER

@<TRIPOS>ATOM
      1 C         140.4724  140.2509  157.8448 C.3     1  UNL1        0.0344
      2 C         139.6320  141.1601  158.6917 C.ar    1  UNL1        0.0197
      3 C         138.3332  141.7917  158.2865 C.ar    1  UNL1        0.1518
      4 N         137.8415  142.6192  159.4369 N.ar    1  UNL1       -0.1608
      5 N         138.8364  142.4990  160.5531 N.ar    1  UNL1       -0.2290
      6 C         139.9430  141.5972  160.0925 C.ar    1  UNL1        0.0804
      7 C         138.7413  143.1639  161.8944 C.ar    1  UNL1        0.0933
      8 C         139.4253  144.4779  162.1303 C.ar    1  UNL1        0.0209
      9 C         139.3302  145.1427  163.4715 C.ar    1  UNL1        0.0130
     10 C         138.5512  144.4937  164.5767 C.ar    1  UNL1        0.0586
     11 CL        138.4561  145.1586  165.9180 Cl      1  UNL1       -0.0822
     12 C         137.8671  143.1797  164.3408 C.ar    1  UNL1        0.0243
     13 C         137.9622  142.5148  162.9997 C.ar    1  UNL1        0.0761
     14 CL        137.2782  141.2009  162.7638 Cl      1  UNL1       -0.0806
     15 C         141.1488  141.2019  160.8923 C.ar    1  UNL1        0.0175
     16 C         142.3056  142.1479  161.0225 C.ar    1  UNL1        0.0024
     17 C         143.5114  141.7526  161.8223 C.ar    1  UNL1        0.0114
     18 C         143.5606  140.4112  162.4919 C.ar    1  UNL1        0.0577
     19 CL        144.7664  140.0159  163.2916 Cl      1  UNL1       -0.0822
     20 C         142.4037  139.4652  162.3616 C.ar    1  UNL1        0.0114
     21 C         141.1979  139.8605  161.5618 C.ar    1  UNL1        0.0024
     22 C         137.6467  141.6251  156.9633 C.2     1  UNL1        0.2653
     23 O         137.3885  142.8217  156.0964 O.2     1  UNL1       -0.2684
     24 N         137.2184  140.2619  156.5070 N.am    1  UNL1       -0.2962
     25 H         137.3878  139.4766  157.0760 H       1  UNL1        0.1501
     26 C         136.5319  140.0953  155.1838 C.3     1  UNL1        0.1126
     27 C         136.3397  139.8490  153.7167 C.3     1  UNL1        0.0276
     28 C         137.7168  139.8079  154.3100 C.3     1  UNL1        0.0276
     29 C         135.1086  140.3248  155.5980 C.ar    1  UNL1        0.1964
     30 N         134.2383  141.4680  155.1668 N.ar    1  UNL1       -0.0587
     31 O         132.8975  141.3012  155.8184 O.2     1  UNL1       -0.3285
     32 C         132.9392  140.0551  156.6523 C.ar    1  UNL1        0.3317
     33 N         134.3057  139.4516  156.5161 N.ar    1  UNL1       -0.1862
     34 C         131.8123  139.5082  157.4775 C.3     1  UNL1        0.4721
     35 F         130.6854  138.9614  158.3028 F       1  UNL1       -0.1619
     36 F         132.7642  138.5666  158.1535 F       1  UNL1       -0.1619
     37 F         130.8603  140.4499  156.8015 F       1  UNL1       -0.1619
@<TRIPOS>BOND
     1     1     2    1
     2     2     3   ar
     3     3    22    1
     4    22    23    2
     5    22    24   am
     6    24    26    1
     7    26    29    1
     8    29    30   ar
     9    30    31   ar
    10    31    32   ar
    11    32    34    1
    12    34    35    1
    13    34    36    1
    14    34    37    1
    15    32    33   ar
    16    26    27    1
    17    27    28    1
    18     3     4   ar
    19     4     5   ar
    20     5     7    1
    21     7     8   ar
    22     8     9   ar
    23     9    10   ar
    24    10    11    1
    25    10    12   ar
    26    12    13   ar
    27    13    14    1
    28     5     6   ar
    29     6    15    1
    30    15    16   ar
    31    16    17   ar
    32    17    18   ar
    33    18    19    1
    34    18    20   ar
    35    20    21   ar
    36     6     2   ar
    37    21    15   ar
    38    28    26    1
    39    13     7   ar
    40    33    29   ar
    41    24    25    1
@<TRIPOS>MOLECULE
*****
 37 41 0 0 0
SMALL
GASTEIGER

@<TRIPOS>ATOM
      1 C         143.7084  140.2440  159.5141 C.3     1  UNL1        0.0344
      2 C         142.5249  139.5904  160.1639 C.ar    1  UNL1        0.0197
      3 C         141.6086  138.5899  159.5239 C.ar    1  UNL1        0.1518
      4 N         140.5673  138.2038  160.5322 N.ar    1  UNL1       -0.1608
      5 N         140.8400  138.9657  161.7952 N.ar    1  UNL1       -0.2290
      6 C         142.0498  139.8226  161.5676 C.ar    1  UNL1        0.0804
      7 C         140.0427  138.8847  163.0633 C.ar    1  UNL1        0.0933
      8 C         140.1789  137.6898  163.9598 C.ar    1  UNL1        0.0209
      9 C         139.3817  137.6088  165.2278 C.ar    1  UNL1        0.0130
     10 C         138.4484  138.7227  165.5993 C.ar    1  UNL1        0.0586
     11 CL        137.6511  138.6418  166.8674 Cl      1  UNL1       -0.0822
     12 C         138.3122  139.9176  164.7028 C.ar    1  UNL1        0.0243
     13 C         139.1094  139.9986  163.4348 C.ar    1  UNL1        0.0761
     14 CL        138.9733  141.1935  162.5383 Cl      1  UNL1       -0.0806
     15 C         142.6750  140.7491  162.5680 C.ar    1  UNL1        0.0175
     16 C         143.4398  140.1912  163.7315 C.ar    1  UNL1        0.0024
     17 C         144.0649  141.1176  164.7319 C.ar    1  UNL1        0.0114
     18 C         143.9252  142.6022  164.5688 C.ar    1  UNL1        0.0577
     19 CL        144.5503  143.5287  165.5692 Cl      1  UNL1       -0.0822
     20 C         143.1604  143.1602  163.4053 C.ar    1  UNL1        0.0114
     21 C         142.5352  142.2337  162.4049 C.ar    1  UNL1        0.0024
     22 C         141.7149  138.0674  158.1219 C.2     1  UNL1        0.2653
     23 O         140.4915  137.9829  157.2582 O.2     1  UNL1       -0.2684
     24 N         143.0447  137.6293  157.5837 N.am    1  UNL1       -0.2962
     25 H         143.8477  137.6848  158.1506 H       1  UNL1        0.1501
     26 C         143.1511  137.1067  156.1817 C.3     1  UNL1        0.1126
     27 C         143.3332  137.0922  154.6929 C.3     1  UNL1        0.0276
     28 C         143.4062  138.3881  155.4448 C.3     1  UNL1        0.0276
     29 C         142.9329  135.6439  156.4317 C.ar    1  UNL1        0.1964
     30 N         143.3471  134.8878  157.6593 N.ar    1  UNL1       -0.0587
     31 O         142.9324  133.4569  157.4843 O.2     1  UNL1       -0.3285
     32 C         142.2620  133.3287  156.1487 C.ar    1  UNL1        0.3317
     33 N         142.2622  134.6803  155.4981 N.ar    1  UNL1       -0.1862
     34 C         141.6913  132.0698  155.5658 C.3     1  UNL1        0.4721
     35 F         141.1207  130.8110  154.9830 F       1  UNL1       -0.1619
     36 F         140.9686  132.8775  154.5290 F       1  UNL1       -0.1619
     37 F         142.4141  131.2621  156.6027 F       1  UNL1       -0.1619
@<TRIPOS>BOND
     1     1     2    1
     2     2     3   ar
     3     3    22    1
     4    22    23    2
     5    22    24   am
     6    24    26    1
     7    26    29    1
     8    29    30   ar
     9    30    31   ar
    10    31    32   ar
    11    32    34    1
    12    34    35    1
    13    34    36    1
    14    34    37    1
    15    32    33   ar
    16    26    27    1
    17    27    28    1
    18     3     4   ar
    19     4     5   ar
    20     5     7    1
    21     7     8   ar
    22     8     9   ar
    23     9    10   ar
    24    10    11    1
    25    10    12   ar
    26    12    13   ar
    27    13    14    1
    28     5     6   ar
    29     6    15    1
    30    15    16   ar
    31    16    17   ar
    32    17    18   ar
    33    18    19    1
    34    18    20   ar
    35    20    21   ar
    36     6     2   ar
    37    21    15   ar
    38    28    26    1
    39    13     7   ar
    40    33    29   ar
    41    24    25    1
@<TRIPOS>MOLECULE
*****
 37 41 0 0 0
SMALL
GASTEIGER

@<TRIPOS>ATOM
      1 C         139.4144  139.0628  158.6317 C.3     1  UNL1        0.0344
      2 C         138.9580  140.3490  159.2541 C.ar    1  UNL1        0.0197
      3 C         138.2207  141.4533  158.5562 C.ar    1  UNL1        0.1518
      4 N         137.9658  142.5435  159.5544 N.ar    1  UNL1       -0.1608
      5 N         138.5457  142.1131  160.8691 N.ar    1  UNL1       -0.2290
      6 C         139.1589  140.7568  160.6835 C.ar    1  UNL1        0.0804
      7 C         138.5173  142.9007  162.1455 C.ar    1  UNL1        0.0933
      8 C         137.5688  142.5173  163.2424 C.ar    1  UNL1        0.0209
      9 C         137.5403  143.3049  164.5187 C.ar    1  UNL1        0.0130
     10 C         138.4604  144.4759  164.6980 C.ar    1  UNL1        0.0586
     11 CL        138.4320  145.2635  165.9743 Cl      1  UNL1       -0.0822
     12 C         139.4089  144.8593  163.6010 C.ar    1  UNL1        0.0243
     13 C         139.4373  144.0718  162.3247 C.ar    1  UNL1        0.0761
     14 CL        140.3858  144.4552  161.2278 Cl      1  UNL1       -0.0806
     15 C         139.8514  139.9500  161.7416 C.ar    1  UNL1        0.0175
     16 C         139.1403  138.8024  162.3952 C.ar    1  UNL1        0.0024
     17 C         139.8328  137.9956  163.4533 C.ar    1  UNL1        0.0114
     18 C         141.2365  138.3363  163.8577 C.ar    1  UNL1        0.0577
     19 CL        141.9290  137.5295  164.9157 Cl      1  UNL1       -0.0822
     20 C         141.9476  139.4840  163.2040 C.ar    1  UNL1        0.0114
     21 C         141.2551  140.2908  162.1459 C.ar    1  UNL1        0.0024
     22 C         137.8102  141.4652  157.1135 C.2     1  UNL1        0.2653
     23 O         137.7909  142.7561  156.3498 O.2     1  UNL1       -0.2684
     24 N         137.4191  140.1861  156.4345 N.am    1  UNL1       -0.2962
     25 H         137.4318  139.3389  156.9357 H       1  UNL1        0.1501
     26 C         137.0087  140.1980  154.9918 C.3     1  UNL1        0.1126
     27 C         137.1097  140.1255  153.4970 C.3     1  UNL1        0.0276
     28 C         138.3387  139.9592  154.3406 C.3     1  UNL1        0.0276
     29 C         135.5361  140.4409  155.1419 C.ar    1  UNL1        0.1964
     30 N         134.6644  141.1945  154.1815 N.ar    1  UNL1       -0.0587
     31 O         133.2662  141.1923  154.7247 O.2     1  UNL1       -0.3285
     32 C         133.2738  140.4372  156.0208 C.ar    1  UNL1        0.3317
     33 N         134.6766  139.9729  156.2786 N.ar    1  UNL1       -0.1862
     34 C         132.0869  140.1899  156.9041 C.3     1  UNL1        0.4721
     35 F         130.9000  139.9427  157.7872 F       1  UNL1       -0.1619
     36 F         131.2086  140.9128  155.9262 F       1  UNL1       -0.1619
     37 F         132.9651  139.4671  157.8819 F       1  UNL1       -0.1619
@<TRIPOS>BOND
     1     1     2    1
     2     2     3   ar
     3     3    22    1
     4    22    23    2
     5    22    24   am
     6    24    26    1
     7    26    29    1
     8    29    30   ar
     9    30    31   ar
    10    31    32   ar
    11    32    34    1
    12    34    35    1
    13    34    36    1
    14    34    37    1
    15    32    33   ar
    16    26    27    1
    17    27    28    1
    18     3     4   ar
    19     4     5   ar
    20     5     7    1
    21     7     8   ar
    22     8     9   ar
    23     9    10   ar
    24    10    11    1
    25    10    12   ar
    26    12    13   ar
    27    13    14    1
    28     5     6   ar
    29     6    15    1
    30    15    16   ar
    31    16    17   ar
    32    17    18   ar
    33    18    19    1
    34    18    20   ar
    35    20    21   ar
    36     6     2   ar
    37    21    15   ar
    38    28    26    1
    39    13     7   ar
    40    33    29   ar
    41    24    25    1
@<TRIPOS>MOLECULE
*****
 37 41 0 0 0
SMALL
GASTEIGER

@<TRIPOS>ATOM
      1 C         139.6410  138.1093  160.0143 C.3     1  UNL1        0.0344
      2 C         140.7649  139.0482  160.3391 C.ar    1  UNL1        0.0197
      3 C         141.8150  139.5307  159.3826 C.ar    1  UNL1        0.1518
      4 N         142.7350  140.4501  160.1297 N.ar    1  UNL1       -0.1608
      5 N         142.2537  140.5358  161.5478 N.ar    1  UNL1       -0.2290
      6 C         141.0361  139.6694  161.6772 C.ar    1  UNL1        0.0804
      7 C         142.8800  141.3458  162.6441 C.ar    1  UNL1        0.0933
      8 C         142.4270  142.7548  162.8881 C.ar    1  UNL1        0.0209
      9 C         143.0532  143.5648  163.9842 C.ar    1  UNL1        0.0130
     10 C         144.1325  142.9658  164.8365 C.ar    1  UNL1        0.0586
     11 CL        144.7588  143.7758  165.9328 Cl      1  UNL1       -0.0822
     12 C         144.5855  141.5568  164.5925 C.ar    1  UNL1        0.0243
     13 C         143.9592  140.7468  163.4963 C.ar    1  UNL1        0.0761
     14 CL        144.4122  139.3378  163.2524 Cl      1  UNL1       -0.0806
     15 C         140.2309  139.4608  162.9255 C.ar    1  UNL1        0.0175
     16 C         140.3776  138.1902  163.7090 C.ar    1  UNL1        0.0024
     17 C         139.5725  137.9816  164.9573 C.ar    1  UNL1        0.0114
     18 C         138.6206  139.0436  165.4221 C.ar    1  UNL1        0.0577
     19 CL        137.8155  138.8350  166.6704 Cl      1  UNL1       -0.0822
     20 C         138.4739  140.3143  164.6385 C.ar    1  UNL1        0.0114
     21 C         139.2790  140.5229  163.3902 C.ar    1  UNL1        0.0024
     22 C         141.9255  139.1591  157.9336 C.2     1  UNL1        0.2653
     23 O         140.7464  139.3328  157.0228 O.2     1  UNL1       -0.2684
     24 N         143.2150  138.6137  157.3955 N.am    1  UNL1       -0.2962
     25 H         143.9889  138.4997  157.9934 H       1  UNL1        0.1501
     26 C         143.3256  138.2421  155.9465 C.3     1  UNL1        0.1126
     27 C         143.6118  138.3605  154.4789 C.3     1  UNL1        0.0276
     28 C         143.8699  139.5241  155.3896 C.3     1  UNL1        0.0276
     29 C         142.8197  136.8310  156.0002 C.ar    1  UNL1        0.1964
     30 N         141.5099  136.3426  155.4560 N.ar    1  UNL1       -0.0587
     31 O         141.4155  134.8703  155.7269 O.2     1  UNL1       -0.3285
     32 C         142.6668  134.4488  156.4385 C.ar    1  UNL1        0.3317
     33 N         143.5346  135.6605  156.6074 N.ar    1  UNL1       -0.1862
     34 C         142.9930  133.0594  156.9003 C.3     1  UNL1        0.4721
     35 F         143.3193  131.6700  157.3620 F       1  UNL1       -0.1619
     36 F         144.1679  133.5901  157.6669 F       1  UNL1       -0.1619
     37 F         141.8181  132.5286  156.1336 F       1  UNL1       -0.1619
@<TRIPOS>BOND
     1     1     2    1
     2     2     3   ar
     3     3    22    1
     4    22    23    2
     5    22    24   am
     6    24    26    1
     7    26    29    1
     8    29    30   ar
     9    30    31   ar
    10    31    32   ar
    11    32    34    1
    12    34    35    1
    13    34    36    1
    14    34    37    1
    15    32    33   ar
    16    26    27    1
    17    27    28    1
    18     3     4   ar
    19     4     5   ar
    20     5     7    1
    21     7     8   ar
    22     8     9   ar
    23     9    10   ar
    24    10    11    1
    25    10    12   ar
    26    12    13   ar
    27    13    14    1
    28     5     6   ar
    29     6    15    1
    30    15    16   ar
    31    16    17   ar
    32    17    18   ar
    33    18    19    1
    34    18    20   ar
    35    20    21   ar
    36     6     2   ar
    37    21    15   ar
    38    28    26    1
    39    13     7   ar
    40    33    29   ar
    41    24    25    1
@<TRIPOS>MOLECULE
*****
 37 41 0 0 0
SMALL
GASTEIGER

@<TRIPOS>ATOM
      1 C         142.8461  137.2972  159.9279 C.3     1  UNL1        0.0344
      2 C         141.8043  138.3738  160.0044 C.ar    1  UNL1        0.0197
      3 C         140.9900  138.8957  158.8579 C.ar    1  UNL1        0.1518
      4 N         140.0764  139.9619  159.3858 N.ar    1  UNL1       -0.1608
      5 N         140.3262  140.0989  160.8585 N.ar    1  UNL1       -0.2290
      6 C         141.3941  139.1174  161.2408 C.ar    1  UNL1        0.0804
      7 C         139.6302  141.0504  161.7860 C.ar    1  UNL1        0.0933
      8 C         138.2666  140.7188  162.3160 C.ar    1  UNL1        0.0209
      9 C         137.5706  141.6702  163.2435 C.ar    1  UNL1        0.0130
     10 C         138.2381  142.9533  163.6410 C.ar    1  UNL1        0.0586
     11 CL        137.5421  143.9048  164.5685 Cl      1  UNL1       -0.0822
     12 C         139.6017  143.2849  163.1111 C.ar    1  UNL1        0.0243
     13 C         140.2977  142.3335  162.1836 C.ar    1  UNL1        0.0761
     14 CL        141.6612  142.6651  161.6536 Cl      1  UNL1       -0.0806
     15 C         141.9535  138.9150  162.6178 C.ar    1  UNL1        0.0175
     16 C         143.1973  139.6413  163.0363 C.ar    1  UNL1        0.0024
     17 C         143.7567  139.4389  164.4133 C.ar    1  UNL1        0.0114
     18 C         143.0723  138.5101  165.3718 C.ar    1  UNL1        0.0577
     19 CL        143.6318  138.3077  166.7488 Cl      1  UNL1       -0.0822
     20 C         141.8284  137.7837  164.9533 C.ar    1  UNL1        0.0114
     21 C         141.2690  137.9861  163.5763 C.ar    1  UNL1        0.0024
     22 C         141.0744  138.4327  157.4336 C.2     1  UNL1        0.2653
     23 O         141.8222  139.2501  156.4224 O.2     1  UNL1       -0.2684
     24 N         140.4109  137.1524  157.0207 N.am    1  UNL1       -0.2962
     25 H         139.9201  136.6159  157.6844 H       1  UNL1        0.1501
     26 C         140.4953  136.6894  155.5964 C.3     1  UNL1        0.1126
     27 C         140.1224  136.4755  154.1594 C.3     1  UNL1        0.0276
     28 C         139.2077  137.2459  155.0649 C.3     1  UNL1        0.0276
     29 C         141.8122  135.9722  155.6332 C.ar    1  UNL1        0.1964
     30 N         143.0401  136.3429  154.8555 N.ar    1  UNL1       -0.0587
     31 O         144.1193  135.3582  155.1958 O.2     1  UNL1       -0.3285
     32 C         143.5583  134.3790  156.1838 C.ar    1  UNL1        0.3317
     33 N         142.1325  134.7584  156.4542 N.ar    1  UNL1       -0.1862
     34 C         144.2940  133.2231  156.7944 C.3     1  UNL1        0.4721
     35 F         145.0297  132.0673  157.4050 F       1  UNL1       -0.1619
     36 F         144.3987  132.5769  155.4449 F       1  UNL1       -0.1619
     37 F         144.1893  133.8693  158.1440 F       1  UNL1       -0.1619
@<TRIPOS>BOND
     1     1     2    1
     2     2     3   ar
     3     3    22    1
     4    22    23    2
     5    22    24   am
     6    24    26    1
     7    26    29    1
     8    29    30   ar
     9    30    31   ar
    10    31    32   ar
    11    32    34    1
    12    34    35    1
    13    34    36    1
    14    34    37    1
    15    32    33   ar
    16    26    27    1
    17    27    28    1
    18     3     4   ar
    19     4     5   ar
    20     5     7    1
    21     7     8   ar
    22     8     9   ar
    23     9    10   ar
    24    10    11    1
    25    10    12   ar
    26    12    13   ar
    27    13    14    1
    28     5     6   ar
    29     6    15    1
    30    15    16   ar
    31    16    17   ar
    32    17    18   ar
    33    18    19    1
    34    18    20   ar
    35    20    21   ar
    36     6     2   ar
    37    21    15   ar
    38    28    26    1
    39    13     7   ar
    40    33    29   ar
    41    24    25    1
