@<TRIPOS>MOLECULE
*****
 27 30 0 0 0
SMALL
GASTEIGER

@<TRIPOS>ATOM
      1 C         142.9747  137.4994  156.9970 C.3     1  UNL1        0.0307
      2 C         142.2213  137.7561  158.2684 C.ar    1  UNL1       -0.0242
      3 C         142.9180  137.6331  159.5910 C.ar    1  UNL1        0.0161
      4 C         142.1646  137.8898  160.8624 C.ar    1  UNL1        0.0983
      5 N         142.5817  137.8458  162.3026 N.ar    1  UNL1       -0.2268
      6 C         141.3892  138.1984  163.1414 C.ar    1  UNL1        0.1441
      7 N         140.2352  138.4603  162.2197 N.ar    1  UNL1       -0.3072
      8 C         140.7144  138.2695  160.8111 C.ar    1  UNL1        0.0788
      9 C         140.0176  138.3925  159.4885 C.ar    1  UNL1        0.0142
     10 C         140.7711  138.1358  158.2172 C.ar    1  UNL1       -0.0243
     11 C         140.0742  138.2589  156.8945 C.3     1  UNL1        0.0307
     12 C         141.3565  138.2756  164.6391 C.2     1  UNL1        0.0371
     13 C         141.3157  139.6112  165.3206 C.2     1  UNL1        0.0031
     14 C         141.2830  139.6884  166.8182 C.ar    1  UNL1        0.0001
     15 C         142.5194  139.3861  167.6120 C.ar    1  UNL1        0.0000
     16 C         142.4866  139.4633  169.1096 C.ar    1  UNL1        0.0000
     17 C         141.2175  139.8426  169.8135 C.ar    1  UNL1        0.0000
     18 C         139.9812  140.1448  169.0198 C.ar    1  UNL1        0.0000
     19 C         140.0139  140.0677  167.5221 C.ar    1  UNL1        0.0000
     20 C         138.8458  138.8453  162.6337 C.3     1  UNL1        0.1342
     21 C         138.4857  140.2922  162.7969 C.ar    1  UNL1        0.0005
     22 C         138.1120  140.8242  164.1487 C.ar    1  UNL1       -0.0015
     23 C         137.7518  142.2711  164.3120 C.ar    1  UNL1        0.0111
     24 C         137.7652  143.1861  163.1234 C.ar    1  UNL1        0.0577
     25 CL        137.4050  144.6330  163.2866 Cl      1  UNL1       -0.0822
     26 C         138.1388  142.6541  161.7716 C.ar    1  UNL1        0.0111
     27 C         138.4991  141.2071  161.6083 C.ar    1  UNL1       -0.0015
@<TRIPOS>BOND
     1     1     2    1
     2     2     3   ar
     3     3     4   ar
     4     4     5   ar
     5     5     6   ar
     6     6    12    1
     7    12    13    2
     8    13    14    1
     9    14    15   ar
    10    15    16   ar
    11    16    17   ar
    12    17    18   ar
    13    18    19   ar
    14     6     7   ar
    15     7    20    1
    16    20    21    1
    17    21    22   ar
    18    22    23   ar
    19    23    24   ar
    20    24    25    1
    21    24    26   ar
    22    26    27   ar
    23     7     8   ar
    24     8     9   ar
    25     9    10   ar
    26    10    11    1
    27    10     2   ar
    28     8     4   ar
    29    19    14   ar
    30    27    21   ar
@<TRIPOS>MOLECULE
*****
 27 30 0 0 0
SMALL
GASTEIGER

@<TRIPOS>ATOM
      1 C         140.9109  145.8519  157.8651 C.3     1  UNL1        0.0307
      2 C         140.4126  145.0270  159.0146 C.ar    1  UNL1       -0.0242
      3 C         140.6986  145.4541  160.4237 C.ar    1  UNL1        0.0161
      4 C         140.2002  144.6292  161.5732 C.ar    1  UNL1        0.0983
      5 N         140.3260  144.7977  163.0584 N.ar    1  UNL1       -0.2268
      6 C         139.6194  143.6499  163.7166 C.ar    1  UNL1        0.1441
      7 N         139.0568  142.7721  162.6382 N.ar    1  UNL1       -0.3072
      8 C         139.4158  143.3774  161.3135 C.ar    1  UNL1        0.0788
      9 C         139.1298  142.9503  159.9043 C.ar    1  UNL1        0.0142
     10 C         139.6282  143.7752  158.7549 C.ar    1  UNL1       -0.0243
     11 C         139.3421  143.3481  157.3456 C.3     1  UNL1        0.0307
     12 C         139.4967  143.4202  165.1939 C.2     1  UNL1        0.0371
     13 C         140.3190  142.3561  165.8582 C.2     1  UNL1        0.0031
     14 C         140.1964  142.1265  167.3354 C.ar    1  UNL1        0.0001
     15 C         140.4022  143.2643  168.2910 C.ar    1  UNL1        0.0000
     16 C         140.2796  143.0347  169.7682 C.ar    1  UNL1        0.0000
     17 C         139.9511  141.6672  170.2899 C.ar    1  UNL1        0.0000
     18 C         139.7452  140.5294  169.3345 C.ar    1  UNL1        0.0000
     19 C         139.8679  140.7590  167.8572 C.ar    1  UNL1        0.0000
     20 C         138.2729  141.5105  162.8476 C.3     1  UNL1        0.1342
     21 C         138.9707  140.2586  163.2901 C.ar    1  UNL1        0.0005
     22 C         138.4517  139.4866  164.4669 C.ar    1  UNL1       -0.0015
     23 C         139.1494  138.2347  164.9094 C.ar    1  UNL1        0.0111
     24 C         140.3662  137.7547  164.1753 C.ar    1  UNL1        0.0577
     25 CL        141.0639  136.5029  164.6178 Cl      1  UNL1       -0.0822
     26 C         140.8853  138.5267  162.9985 C.ar    1  UNL1        0.0111
     27 C         140.1875  139.7786  162.5559 C.ar    1  UNL1       -0.0015
@<TRIPOS>BOND
     1     1     2    1
     2     2     3   ar
     3     3     4   ar
     4     4     5   ar
     5     5     6   ar
     6     6    12    1
     7    12    13    2
     8    13    14    1
     9    14    15   ar
    10    15    16   ar
    11    16    17   ar
    12    17    18   ar
    13    18    19   ar
    14     6     7   ar
    15     7    20    1
    16    20    21    1
    17    21    22   ar
    18    22    23   ar
    19    23    24   ar
    20    24    25    1
    21    24    26   ar
    22    26    27   ar
    23     7     8   ar
    24     8     9   ar
    25     9    10   ar
    26    10    11    1
    27    10     2   ar
    28     8     4   ar
    29    19    14   ar
    30    27    21   ar
@<TRIPOS>MOLECULE
*****
 27 30 0 0 0
SMALL
GASTEIGER

@<TRIPOS>ATOM
      1 C         141.6986  145.8349  157.9124 C.3     1  UNL1        0.0307
      2 C         141.4357  144.7961  158.9620 C.ar    1  UNL1       -0.0242
      3 C         140.9973  145.2114  160.3350 C.ar    1  UNL1        0.0161
      4 C         140.7344  144.1726  161.3847 C.ar    1  UNL1        0.0983
      5 N         140.2950  144.2796  162.8150 N.ar    1  UNL1       -0.2268
      6 C         140.1991  142.8916  163.3755 C.ar    1  UNL1        0.1441
      7 N         140.5791  141.9268  162.2917 N.ar    1  UNL1       -0.3072
      8 C         140.9100  142.7184  161.0613 C.ar    1  UNL1        0.0788
      9 C         141.3484  142.3031  159.6883 C.ar    1  UNL1        0.0142
     10 C         141.6113  143.3419  158.6387 C.ar    1  UNL1       -0.0243
     11 C         142.0498  142.9265  157.2656 C.3     1  UNL1        0.0307
     12 C         139.7942  142.5316  164.7743 C.2     1  UNL1        0.0371
     13 C         140.8384  142.3657  165.8381 C.2     1  UNL1        0.0031
     14 C         140.4335  142.0057  167.2368 C.ar    1  UNL1        0.0001
     15 C         139.9864  140.6090  167.5523 C.ar    1  UNL1        0.0000
     16 C         139.5814  140.2490  168.9510 C.ar    1  UNL1        0.0000
     17 C         139.6236  141.2857  170.0343 C.ar    1  UNL1        0.0000
     18 C         140.0707  142.6823  169.7189 C.ar    1  UNL1        0.0000
     19 C         140.4757  143.0424  168.3202 C.ar    1  UNL1        0.0000
     20 C         140.6210  140.4325  162.4163 C.3     1  UNL1        0.1342
     21 C         141.4887  139.7908  163.4581 C.ar    1  UNL1        0.0005
     22 C         140.9157  138.7505  164.3744 C.ar    1  UNL1       -0.0015
     23 C         141.7832  138.1087  165.4162 C.ar    1  UNL1        0.0111
     24 C         143.2239  138.5072  165.5418 C.ar    1  UNL1        0.0577
     25 CL        144.0915  137.8655  166.5836 Cl      1  UNL1       -0.0822
     26 C         143.7969  139.5475  164.6256 C.ar    1  UNL1        0.0111
     27 C         142.9293  140.1893  163.5837 C.ar    1  UNL1       -0.0015
@<TRIPOS>BOND
     1     1     2    1
     2     2     3   ar
     3     3     4   ar
     4     4     5   ar
     5     5     6   ar
     6     6    12    1
     7    12    13    2
     8    13    14    1
     9    14    15   ar
    10    15    16   ar
    11    16    17   ar
    12    17    18   ar
    13    18    19   ar
    14     6     7   ar
    15     7    20    1
    16    20    21    1
    17    21    22   ar
    18    22    23   ar
    19    23    24   ar
    20    24    25    1
    21    24    26   ar
    22    26    27   ar
    23     7     8   ar
    24     8     9   ar
    25     9    10   ar
    26    10    11    1
    27    10     2   ar
    28     8     4   ar
    29    19    14   ar
    30    27    21   ar
@<TRIPOS>MOLECULE
*****
 27 30 0 0 0
SMALL
GASTEIGER

@<TRIPOS>ATOM
      1 C         137.7469  138.3624  166.6439 C.3     1  UNL1        0.0307
      2 C         138.9429  138.5341  165.7551 C.ar    1  UNL1       -0.0242
      3 C         138.9789  137.8716  164.4098 C.ar    1  UNL1        0.0161
      4 C         140.1749  138.0433  163.5210 C.ar    1  UNL1        0.0983
      5 N         140.4929  137.5160  162.1532 N.ar    1  UNL1       -0.2268
      6 C         141.8495  138.0243  161.7643 C.ar    1  UNL1        0.1441
      7 N         142.3700  138.8657  162.8918 N.ar    1  UNL1       -0.3072
      8 C         141.3350  138.8775  163.9775 C.ar    1  UNL1        0.0788
      9 C         141.2990  139.5399  165.3227 C.ar    1  UNL1        0.0142
     10 C         140.1030  139.3682  166.2116 C.ar    1  UNL1       -0.0243
     11 C         140.0671  140.0308  167.5569 C.3     1  UNL1        0.0307
     12 C         142.5608  137.7409  160.4744 C.2     1  UNL1        0.0371
     13 C         141.9644  138.1922  159.1742 C.2     1  UNL1        0.0031
     14 C         142.6758  137.9088  157.8844 C.ar    1  UNL1        0.0001
     15 C         142.8567  136.4930  157.4229 C.ar    1  UNL1        0.0000
     16 C         143.5680  136.2096  156.1331 C.ar    1  UNL1        0.0000
     17 C         144.0985  137.3420  155.3047 C.ar    1  UNL1        0.0000
     18 C         143.9176  138.7577  155.7660 C.ar    1  UNL1        0.0000
     19 C         143.2062  139.0412  157.0559 C.ar    1  UNL1        0.0000
     20 C         143.6930  139.5715  162.9273 C.3     1  UNL1        0.1342
     21 C         143.7537  141.0358  163.2468 C.ar    1  UNL1        0.0005
     22 C         143.0378  142.0240  162.3744 C.ar    1  UNL1       -0.0015
     23 C         143.0984  143.4884  162.6937 C.ar    1  UNL1        0.0111
     24 C         143.8749  143.9645  163.8855 C.ar    1  UNL1        0.0577
     25 CL        143.9355  145.4288  164.2050 Cl      1  UNL1       -0.0822
     26 C         144.5908  142.9764  164.7579 C.ar    1  UNL1        0.0111
     27 C         144.5302  141.5120  164.4385 C.ar    1  UNL1       -0.0015
@<TRIPOS>BOND
     1     1     2    1
     2     2     3   ar
     3     3     4   ar
     4     4     5   ar
     5     5     6   ar
     6     6    12    1
     7    12    13    2
     8    13    14    1
     9    14    15   ar
    10    15    16   ar
    11    16    17   ar
    12    17    18   ar
    13    18    19   ar
    14     6     7   ar
    15     7    20    1
    16    20    21    1
    17    21    22   ar
    18    22    23   ar
    19    23    24   ar
    20    24    25    1
    21    24    26   ar
    22    26    27   ar
    23     7     8   ar
    24     8     9   ar
    25     9    10   ar
    26    10    11    1
    27    10     2   ar
    28     8     4   ar
    29    19    14   ar
    30    27    21   ar
@<TRIPOS>MOLECULE
*****
 27 30 0 0 0
SMALL
GASTEIGER

@<TRIPOS>ATOM
      1 C         142.8959  143.3329  170.5689 C.3     1  UNL1        0.0307
      2 C         142.2764  142.5103  169.4782 C.ar    1  UNL1       -0.0242
      3 C         143.0927  142.1100  168.2852 C.ar    1  UNL1        0.0161
      4 C         142.4733  141.2874  167.1944 C.ar    1  UNL1        0.0983
      5 N         143.0251  140.7464  165.9088 N.ar    1  UNL1       -0.2268
      6 C         141.9304  139.9898  165.2165 C.ar    1  UNL1        0.1441
      7 N         140.7021  140.0632  166.0744 N.ar    1  UNL1       -0.3072
      8 C         141.0376  140.8652  167.2968 C.ar    1  UNL1        0.0788
      9 C         140.2214  141.2655  168.4898 C.ar    1  UNL1        0.0142
     10 C         140.8408  142.0881  169.5805 C.ar    1  UNL1       -0.0243
     11 C         140.0244  142.4885  170.7736 C.3     1  UNL1        0.0307
     12 C         142.0441  139.2837  163.8980 C.2     1  UNL1        0.0371
     13 C         141.8632  140.0478  162.6200 C.2     1  UNL1        0.0031
     14 C         141.9769  139.3417  161.3015 C.ar    1  UNL1        0.0001
     15 C         141.1110  139.7593  160.1499 C.ar    1  UNL1        0.0000
     16 C         141.2246  139.0532  158.8315 C.ar    1  UNL1        0.0000
     17 C         142.2041  137.9295  158.6644 C.ar    1  UNL1        0.0000
     18 C         143.0700  137.5120  159.8158 C.ar    1  UNL1        0.0000
     19 C         142.9564  138.2181  161.1344 C.ar    1  UNL1        0.0000
     20 C         139.3718  139.4435  165.7642 C.3     1  UNL1        0.1342
     21 C         138.8113  139.5262  164.3754 C.ar    1  UNL1        0.0005
     22 C         138.3285  140.8410  163.8385 C.ar    1  UNL1       -0.0015
     23 C         137.7680  140.9238  162.4496 C.ar    1  UNL1        0.0111
     24 C         137.6903  139.6917  161.5976 C.ar    1  UNL1        0.0577
     25 CL        137.1298  139.7744  160.2087 Cl      1  UNL1       -0.0822
     26 C         138.1731  138.3769  162.1344 C.ar    1  UNL1        0.0111
     27 C         138.7336  138.2941  163.5233 C.ar    1  UNL1       -0.0015
@<TRIPOS>BOND
     1     1     2    1
     2     2     3   ar
     3     3     4   ar
     4     4     5   ar
     5     5     6   ar
     6     6    12    1
     7    12    13    2
     8    13    14    1
     9    14    15   ar
    10    15    16   ar
    11    16    17   ar
    12    17    18   ar
    13    18    19   ar
    14     6     7   ar
    15     7    20    1
    16    20    21    1
    17    21    22   ar
    18    22    23   ar
    19    23    24   ar
    20    24    25    1
    21    24    26   ar
    22    26    27   ar
    23     7     8   ar
    24     8     9   ar
    25     9    10   ar
    26    10    11    1
    27    10     2   ar
    28     8     4   ar
    29    19    14   ar
    30    27    21   ar
@<TRIPOS>MOLECULE
*****
 27 30 0 0 0
SMALL
GASTEIGER

@<TRIPOS>ATOM
      1 C         139.9627  146.1140  156.4555 C.3     1  UNL1        0.0307
      2 C         140.7388  145.4452  157.5512 C.ar    1  UNL1       -0.0242
      3 C         140.3586  145.6703  158.9846 C.ar    1  UNL1        0.0161
      4 C         141.1346  145.0016  160.0803 C.ar    1  UNL1        0.0983
      5 N         140.9947  145.0343  161.5735 N.ar    1  UNL1       -0.2268
      6 C         142.0644  144.1606  162.1585 C.ar    1  UNL1        0.1441
      7 N         142.8655  143.5879  161.0270 N.ar    1  UNL1       -0.3072
      8 C         142.2908  144.1077  159.7426 C.ar    1  UNL1        0.0788
      9 C         142.6710  143.8826  158.3092 C.ar    1  UNL1        0.0142
     10 C         141.8950  144.5513  157.2135 C.ar    1  UNL1       -0.0243
     11 C         142.2752  144.3261  155.7800 C.3     1  UNL1        0.0307
     12 C         142.2929  143.9045  163.6188 C.2     1  UNL1        0.0371
     13 C         141.3237  143.0613  164.3930 C.2     1  UNL1        0.0031
     14 C         141.5523  142.8052  165.8532 C.ar    1  UNL1        0.0001
     15 C         140.4092  142.9026  166.8197 C.ar    1  UNL1        0.0000
     16 C         140.6378  142.6466  168.2799 C.ar    1  UNL1        0.0000
     17 C         142.0094  142.2930  168.7736 C.ar    1  UNL1        0.0000
     18 C         143.1524  142.1956  167.8072 C.ar    1  UNL1        0.0000
     19 C         142.9238  142.4517  166.3469 C.ar    1  UNL1        0.0000
     20 C         144.0357  142.6586  161.1570 C.3     1  UNL1        0.1342
     21 C         144.0552  141.6245  162.2433 C.ar    1  UNL1        0.0005
     22 C         142.9515  140.6129  162.3358 C.ar    1  UNL1       -0.0015
     23 C         142.9709  139.5788  163.4221 C.ar    1  UNL1        0.0111
     24 C         144.0941  139.5561  164.4160 C.ar    1  UNL1        0.0577
     25 CL        144.1136  138.5220  165.5023 Cl      1  UNL1       -0.0822
     26 C         145.1979  140.5676  164.3236 C.ar    1  UNL1        0.0111
     27 C         145.1784  141.6018  163.2372 C.ar    1  UNL1       -0.0015
@<TRIPOS>BOND
     1     1     2    1
     2     2     3   ar
     3     3     4   ar
     4     4     5   ar
     5     5     6   ar
     6     6    12    1
     7    12    13    2
     8    13    14    1
     9    14    15   ar
    10    15    16   ar
    11    16    17   ar
    12    17    18   ar
    13    18    19   ar
    14     6     7   ar
    15     7    20    1
    16    20    21    1
    17    21    22   ar
    18    22    23   ar
    19    23    24   ar
    20    24    25    1
    21    24    26   ar
    22    26    27   ar
    23     7     8   ar
    24     8     9   ar
    25     9    10   ar
    26    10    11    1
    27    10     2   ar
    28     8     4   ar
    29    19    14   ar
    30    27    21   ar
@<TRIPOS>MOLECULE
*****
 27 30 0 0 0
SMALL
GASTEIGER

@<TRIPOS>ATOM
      1 C         142.5323  137.3555  155.5582 C.3     1  UNL1        0.0307
      2 C         141.9074  137.8428  156.8318 C.ar    1  UNL1       -0.0242
      3 C         142.7702  138.3969  157.9265 C.ar    1  UNL1        0.0161
      4 C         142.1453  138.8842  159.2001 C.ar    1  UNL1        0.0983
      5 N         142.7357  139.4767  160.4453 N.ar    1  UNL1       -0.2268
      6 C         141.6128  139.7760  161.3937 C.ar    1  UNL1        0.1441
      7 N         140.3284  139.3684  160.7347 N.ar    1  UNL1       -0.3072
      8 C         140.6575  138.8173  159.3790 C.ar    1  UNL1        0.0788
      9 C         139.7947  138.2631  158.2844 C.ar    1  UNL1        0.0142
     10 C         140.4196  137.7759  157.0108 C.ar    1  UNL1       -0.0243
     11 C         139.5567  137.2217  155.9160 C.3     1  UNL1        0.0307
     12 C         141.7502  140.3772  162.7611 C.2     1  UNL1        0.0371
     13 C         142.2543  139.5420  163.9005 C.2     1  UNL1        0.0031
     14 C         142.3916  140.1433  165.2678 C.ar    1  UNL1        0.0001
     15 C         142.8991  141.5464  165.4226 C.ar    1  UNL1        0.0000
     16 C         143.0364  142.1477  166.7899 C.ar    1  UNL1        0.0000
     17 C         142.6663  141.3460  168.0024 C.ar    1  UNL1        0.0000
     18 C         142.1588  139.9429  167.8477 C.ar    1  UNL1        0.0000
     19 C         142.0215  139.3416  166.4803 C.ar    1  UNL1        0.0000
     20 C         138.9559  139.4906  161.3274 C.3     1  UNL1        0.1342
     21 C         138.7589  139.3200  162.8046 C.ar    1  UNL1        0.0005
     22 C         138.9733  137.9782  163.4398 C.ar    1  UNL1       -0.0015
     23 C         138.7763  137.8075  164.9170 C.ar    1  UNL1        0.0111
     24 C         138.3648  138.9787  165.7590 C.ar    1  UNL1        0.0577
     25 CL        138.1678  138.8082  167.2361 Cl      1  UNL1       -0.0822
     26 C         138.1504  140.3206  165.1238 C.ar    1  UNL1        0.0111
     27 C         138.3474  140.4912  163.6465 C.ar    1  UNL1       -0.0015
@<TRIPOS>BOND
     1     1     2    1
     2     2     3   ar
     3     3     4   ar
     4     4     5   ar
     5     5     6   ar
     6     6    12    1
     7    12    13    2
     8    13    14    1
     9    14    15   ar
    10    15    16   ar
    11    16    17   ar
    12    17    18   ar
    13    18    19   ar
    14     6     7   ar
    15     7    20    1
    16    20    21    1
    17    21    22   ar
    18    22    23   ar
    19    23    24   ar
    20    24    25    1
    21    24    26   ar
    22    26    27   ar
    23     7     8   ar
    24     8     9   ar
    25     9    10   ar
    26    10    11    1
    27    10     2   ar
    28     8     4   ar
    29    19    14   ar
    30    27    21   ar
@<TRIPOS>MOLECULE
*****
 27 30 0 0 0
SMALL
GASTEIGER

@<TRIPOS>ATOM
      1 C         142.2323  139.5563  169.8074 C.3     1  UNL1        0.0307
      2 C         142.6005  140.0885  168.4542 C.ar    1  UNL1       -0.0242
      3 C         142.7145  139.1541  167.2864 C.ar    1  UNL1        0.0161
      4 C         143.0827  139.6864  165.9331 C.ar    1  UNL1        0.0983
      5 N         143.2689  139.0122  164.6061 N.ar    1  UNL1       -0.2268
      6 C         143.6381  140.0622  163.6006 C.ar    1  UNL1        0.1441
      7 N         143.6801  141.3853  164.3062 N.ar    1  UNL1       -0.3072
      8 C         143.3368  141.1530  165.7477 C.ar    1  UNL1        0.0788
      9 C         143.2228  142.0874  166.9156 C.ar    1  UNL1        0.0142
     10 C         142.8546  141.5551  168.2688 C.ar    1  UNL1       -0.0243
     11 C         142.7406  142.4896  169.4367 C.3     1  UNL1        0.0307
     12 C         143.9165  139.8301  162.1450 C.2     1  UNL1        0.0371
     13 C         142.8906  140.2032  161.1164 C.2     1  UNL1        0.0031
     14 C         143.1690  139.9710  159.6609 C.ar    1  UNL1        0.0001
     15 C         142.6388  138.7427  158.9824 C.ar    1  UNL1        0.0000
     16 C         142.9172  138.5105  157.5269 C.ar    1  UNL1        0.0000
     17 C         143.7259  139.5065  156.7498 C.ar    1  UNL1        0.0000
     18 C         144.2561  140.7348  157.4281 C.ar    1  UNL1        0.0000
     19 C         143.9777  140.9670  158.8837 C.ar    1  UNL1        0.0000
     20 C         144.0079  142.7084  163.6801 C.3     1  UNL1        0.1342
     21 C         142.9059  143.5966  163.1833 C.ar    1  UNL1        0.0005
     22 C         141.9677  144.2445  164.1580 C.ar    1  UNL1       -0.0015
     23 C         140.8658  145.1327  163.6613 C.ar    1  UNL1        0.0111
     24 C         140.7020  145.3730  162.1898 C.ar    1  UNL1        0.0577
     25 CL        139.6001  146.2612  161.6929 Cl      1  UNL1       -0.0822
     26 C         141.6401  144.7252  161.2150 C.ar    1  UNL1        0.0111
     27 C         142.7422  143.8370  161.7118 C.ar    1  UNL1       -0.0015
@<TRIPOS>BOND
     1     1     2    1
     2     2     3   ar
     3     3     4   ar
     4     4     5   ar
     5     5     6   ar
     6     6    12    1
     7    12    13    2
     8    13    14    1
     9    14    15   ar
    10    15    16   ar
    11    16    17   ar
    12    17    18   ar
    13    18    19   ar
    14     6     7   ar
    15     7    20    1
    16    20    21    1
    17    21    22   ar
    18    22    23   ar
    19    23    24   ar
    20    24    25    1
    21    24    26   ar
    22    26    27   ar
    23     7     8   ar
    24     8     9   ar
    25     9    10   ar
    26    10    11    1
    27    10     2   ar
    28     8     4   ar
    29    19    14   ar
    30    27    21   ar
@<TRIPOS>MOLECULE
*****
 27 30 0 0 0
SMALL
GASTEIGER

@<TRIPOS>ATOM
      1 C         140.1300  141.3463  170.3761 C.3     1  UNL1        0.0307
      2 C         140.8849  141.3248  169.0801 C.ar    1  UNL1       -0.0242
      3 C         140.5835  142.3417  168.0195 C.ar    1  UNL1        0.0161
      4 C         141.3384  142.3201  166.7235 C.ar    1  UNL1        0.0983
      5 N         141.2609  143.1877  165.5022 N.ar    1  UNL1       -0.2268
      6 C         142.2694  142.6853  164.5120 C.ar    1  UNL1        0.1441
      7 N         142.9701  141.5072  165.1213 N.ar    1  UNL1       -0.3072
      8 C         142.3947  141.2816  166.4880 C.ar    1  UNL1        0.0788
      9 C         142.6962  140.2646  167.5486 C.ar    1  UNL1        0.0142
     10 C         141.9413  140.2862  168.8446 C.ar    1  UNL1       -0.0243
     11 C         142.2428  139.2692  169.9052 C.3     1  UNL1        0.0307
     12 C         142.5312  143.2600  163.1514 C.2     1  UNL1        0.0371
     13 C         141.5770  142.9886  162.0263 C.2     1  UNL1        0.0031
     14 C         141.8389  143.5632  160.6658 C.ar    1  UNL1        0.0001
     15 C         141.0845  144.7755  160.2057 C.ar    1  UNL1        0.0000
     16 C         141.3463  145.3501  158.8452 C.ar    1  UNL1        0.0000
     17 C         142.3625  144.7127  157.9446 C.ar    1  UNL1        0.0000
     18 C         143.1169  143.5005  158.4046 C.ar    1  UNL1        0.0000
     19 C         142.8550  142.9258  159.7652 C.ar    1  UNL1        0.0000
     20 C         144.0557  140.6971  164.4770 C.3     1  UNL1        0.1342
     21 C         143.7593  139.8876  163.2494 C.ar    1  UNL1        0.0005
     22 C         144.3808  140.2615  161.9364 C.ar    1  UNL1       -0.0015
     23 C         144.0845  139.4520  160.7088 C.ar    1  UNL1        0.0111
     24 C         143.1668  138.2687  160.7942 C.ar    1  UNL1        0.0577
     25 CL        142.8704  137.4592  159.5666 Cl      1  UNL1       -0.0822
     26 C         142.5453  137.8947  162.1071 C.ar    1  UNL1        0.0111
     27 C         142.8416  138.7042  163.3348 C.ar    1  UNL1       -0.0015
@<TRIPOS>BOND
     1     1     2    1
     2     2     3   ar
     3     3     4   ar
     4     4     5   ar
     5     5     6   ar
     6     6    12    1
     7    12    13    2
     8    13    14    1
     9    14    15   ar
    10    15    16   ar
    11    16    17   ar
    12    17    18   ar
    13    18    19   ar
    14     6     7   ar
    15     7    20    1
    16    20    21    1
    17    21    22   ar
    18    22    23   ar
    19    23    24   ar
    20    24    25    1
    21    24    26   ar
    22    26    27   ar
    23     7     8   ar
    24     8     9   ar
    25     9    10   ar
    26    10    11    1
    27    10     2   ar
    28     8     4   ar
    29    19    14   ar
    30    27    21   ar
