@<TRIPOS>MOLECULE
*****
 31 33 0 0 0
SMALL
GASTEIGER

@<TRIPOS>ATOM
      1 C         142.6061  139.7150  169.6413 C.3     1  UNL1        0.1056
      2 N         142.8389  140.3215  168.2892 N.3     1  UNL1       -0.2682
      3 C         143.0605  141.7992  168.1581 C.3     1  UNL1        0.0897
      4 C         143.2933  142.4057  166.8061 C.3     1  UNL1        0.0899
      5 N         143.3044  141.5344  165.5852 N.3     1  UNL1       -0.2664
      6 C         143.0828  140.0567  165.7162 C.3     1  UNL1        0.0899
      7 C         142.8500  139.4502  167.0683 C.3     1  UNL1        0.0897
      8 C         143.5372  142.1409  164.2331 C.3     1  UNL1        0.1023
      9 C         142.4673  142.9725  163.5898 C.ar    1  UNL1        0.0319
     10 C         141.2854  142.3082  162.9481 C.ar    1  UNL1        0.1383
     11 F         141.1734  140.8124  162.9496 F       1  UNL1       -0.2044
     12 C         140.2155  143.1398  162.3048 C.ar    1  UNL1        0.0294
     13 C         140.3275  144.6356  162.3033 C.ar    1  UNL1        0.0032
     14 C         141.5094  145.2999  162.9450 C.ar    1  UNL1        0.0113
     15 C         142.5793  144.4683  163.5883 C.ar    1  UNL1        0.0572
     16 CL        143.7612  145.1325  164.2301 Cl      1  UNL1       -0.0825
     17 O         142.1422  140.7817  171.9644 O.3     1  UNL1       -0.3793
     18 C         141.6612  140.3702  170.6045 C.3     1  UNL1        0.1700
     19 H         141.4113  141.1868  172.4569 H       1  UNL1        0.2106
     20 C         140.2352  140.6140  170.2078 C.3     1  UNL1        0.2358
     21 O         139.4852  139.5744  169.4289 O.3     1  UNL1       -0.4728
     22 C         139.1224  139.8279  167.9956 C.ar    1  UNL1        0.1387
     23 C         138.2179  138.8755  167.2712 C.ar    1  UNL1        0.0368
     24 C         137.8551  139.1291  165.8380 C.ar    1  UNL1        0.0070
     25 C         138.3967  140.3350  165.1293 C.ar    1  UNL1        0.0716
     26 C         139.3012  141.2874  165.8537 C.ar    1  UNL1        0.0070
     27 C         139.6640  141.0338  167.2868 C.ar    1  UNL1        0.0368
     28 C         138.0339  140.5885  163.6960 C.3     1  UNL1        0.4186
     29 F         137.6710  140.8419  162.2628 F       1  UNL1       -0.1659
     30 F         137.6285  141.9895  164.0464 F       1  UNL1       -0.1659
     31 F         138.4392  139.1875  163.3456 F       1  UNL1       -0.1659
@<TRIPOS>BOND
     1    18    17    1
     2    18    20    1
     3    20    21    1
     4    21    22    1
     5    22    23   ar
     6    23    24   ar
     7    24    25   ar
     8    25    28    1
     9    28    29    1
    10    28    30    1
    11    28    31    1
    12    25    26   ar
    13    26    27   ar
    14    18     1    1
    15     1     2    1
    16     2     3    1
    17     3     4    1
    18     4     5    1
    19     5     8    1
    20     8     9    1
    21     9    10   ar
    22    10    11    1
    23    10    12   ar
    24    12    13   ar
    25    13    14   ar
    26    14    15   ar
    27    15    16    1
    28     5     6    1
    29     6     7    1
    30    27    22   ar
    31     7     2    1
    32    15     9   ar
    33    17    19    1
@<TRIPOS>MOLECULE
*****
 31 33 0 0 0
SMALL
GASTEIGER

@<TRIPOS>ATOM
      1 C         140.8301  145.5409  162.8955 C.3     1  UNL1        0.1056
      2 N         140.9071  144.3501  163.8043 N.3     1  UNL1       -0.2682
      3 C         139.8506  144.1326  164.8467 C.3     1  UNL1        0.0897
      4 C         139.9277  142.9418  165.7556 C.3     1  UNL1        0.0899
      5 N         141.0612  141.9685  165.6221 N.3     1  UNL1       -0.2664
      6 C         142.1176  142.1860  164.5797 C.3     1  UNL1        0.0899
      7 C         142.0406  143.3768  163.6708 C.3     1  UNL1        0.0897
      8 C         141.1382  140.7777  166.5309 C.3     1  UNL1        0.1023
      9 C         141.0050  140.9565  168.0143 C.ar    1  UNL1        0.0319
     10 C         139.8309  140.3672  168.7383 C.ar    1  UNL1        0.1383
     11 F         138.7900  139.5992  167.9789 F       1  UNL1       -0.2044
     12 C         139.6977  140.5460  170.2216 C.ar    1  UNL1        0.0294
     13 C         140.7386  141.3140  170.9810 C.ar    1  UNL1        0.0032
     14 C         141.9127  141.9033  170.2570 C.ar    1  UNL1        0.0113
     15 C         142.0459  141.7245  168.7736 C.ar    1  UNL1        0.0572
     16 CL        143.2200  142.3138  168.0496 Cl      1  UNL1       -0.0825
     17 O         139.1228  146.7084  161.3232 O.3     1  UNL1       -0.3793
     18 C         139.9422  145.5058  161.6870 C.3     1  UNL1        0.1700
     19 H         138.6095  146.5196  160.5221 H       1  UNL1        0.2106
     20 C         139.8737  144.2681  160.8423 C.3     1  UNL1        0.2358
     21 O         138.6785  143.3660  160.9293 O.3     1  UNL1       -0.4728
     22 C         138.6998  142.1791  161.8465 C.ar    1  UNL1        0.1387
     23 C         139.8150  141.1803  161.7546 C.ar    1  UNL1        0.0368
     24 C         139.8363  139.9935  162.6717 C.ar    1  UNL1        0.0070
     25 C         138.7423  139.8056  163.6806 C.ar    1  UNL1        0.0716
     26 C         137.6271  140.8045  163.7725 C.ar    1  UNL1        0.0070
     27 C         137.6058  141.9912  162.8554 C.ar    1  UNL1        0.0368
     28 C         138.7636  138.6188  164.5978 C.3     1  UNL1        0.4186
     29 F         138.7849  137.4320  165.5149 F       1  UNL1       -0.1659
     30 F         139.7499  137.9389  163.6951 F       1  UNL1       -0.1659
     31 F         137.7773  139.2987  165.5005 F       1  UNL1       -0.1659
@<TRIPOS>BOND
     1    18    17    1
     2    18    20    1
     3    20    21    1
     4    21    22    1
     5    22    23   ar
     6    23    24   ar
     7    24    25   ar
     8    25    28    1
     9    28    29    1
    10    28    30    1
    11    28    31    1
    12    25    26   ar
    13    26    27   ar
    14    18     1    1
    15     1     2    1
    16     2     3    1
    17     3     4    1
    18     4     5    1
    19     5     8    1
    20     8     9    1
    21     9    10   ar
    22    10    11    1
    23    10    12   ar
    24    12    13   ar
    25    13    14   ar
    26    14    15   ar
    27    15    16    1
    28     5     6    1
    29     6     7    1
    30    27    22   ar
    31     7     2    1
    32    15     9   ar
    33    17    19    1
@<TRIPOS>MOLECULE
*****
 31 33 0 0 0
SMALL
GASTEIGER

@<TRIPOS>ATOM
      1 C         140.8921  145.1596  161.0077 C.3     1  UNL1        0.1056
      2 N         141.5594  144.1685  161.9145 N.3     1  UNL1       -0.2682
      3 C         142.6221  144.6236  162.8705 C.3     1  UNL1        0.0897
      4 C         143.2894  143.6325  163.7773 C.3     1  UNL1        0.0899
      5 N         142.8942  142.1863  163.7282 N.3     1  UNL1       -0.2664
      6 C         141.8316  141.7313  162.7723 C.3     1  UNL1        0.0899
      7 C         141.1642  142.7224  161.8654 C.3     1  UNL1        0.0897
      8 C         143.5615  141.1952  164.6350 C.3     1  UNL1        0.1023
      9 C         143.0184  140.9547  166.0124 C.ar    1  UNL1        0.0319
     10 C         143.2877  141.9433  167.1079 C.ar    1  UNL1        0.1383
     11 F         144.1001  143.1724  166.8260 F       1  UNL1       -0.2044
     12 C         142.7446  141.7028  168.4853 C.ar    1  UNL1        0.0294
     13 C         141.9323  140.4736  168.7672 C.ar    1  UNL1        0.0032
     14 C         141.6630  139.4851  167.6717 C.ar    1  UNL1        0.0113
     15 C         142.2061  139.7256  166.2942 C.ar    1  UNL1        0.0572
     16 CL        141.9368  138.7370  165.1987 Cl      1  UNL1       -0.0825
     17 O         139.1435  147.0516  160.6720 O.3     1  UNL1       -0.3793
     18 C         139.6723  145.8985  161.4725 C.3     1  UNL1        0.1700
     19 H         138.3569  147.4144  161.1084 H       1  UNL1        0.2106
     20 C         138.9812  145.4844  162.7378 C.3     1  UNL1        0.2358
     21 O         137.8538  144.4963  162.6878 O.3     1  UNL1       -0.4728
     22 C         138.0090  143.1484  163.3275 C.ar    1  UNL1        0.1387
     23 C         137.5193  141.9207  162.6183 C.ar    1  UNL1        0.0368
     24 C         137.6744  140.5729  163.2580 C.ar    1  UNL1        0.0070
     25 C         138.3192  140.4528  164.6070 C.ar    1  UNL1        0.0716
     26 C         138.8089  141.6804  165.3163 C.ar    1  UNL1        0.0070
     27 C         138.6537  143.0282  164.6765 C.ar    1  UNL1        0.0368
     28 C         138.4743  139.1048  165.2467 C.3     1  UNL1        0.4186
     29 F         138.6294  137.7570  165.8864 F       1  UNL1       -0.1659
     30 F         138.4145  138.4566  163.8954 F       1  UNL1       -0.1659
     31 F         138.5342  139.7531  166.5980 F       1  UNL1       -0.1659
@<TRIPOS>BOND
     1    18    17    1
     2    18    20    1
     3    20    21    1
     4    21    22    1
     5    22    23   ar
     6    23    24   ar
     7    24    25   ar
     8    25    28    1
     9    28    29    1
    10    28    30    1
    11    28    31    1
    12    25    26   ar
    13    26    27   ar
    14    18     1    1
    15     1     2    1
    16     2     3    1
    17     3     4    1
    18     4     5    1
    19     5     8    1
    20     8     9    1
    21     9    10   ar
    22    10    11    1
    23    10    12   ar
    24    12    13   ar
    25    13    14   ar
    26    14    15   ar
    27    15    16    1
    28     5     6    1
    29     6     7    1
    30    27    22   ar
    31     7     2    1
    32    15     9   ar
    33    17    19    1
@<TRIPOS>MOLECULE
*****
 31 33 0 0 0
SMALL
GASTEIGER

@<TRIPOS>ATOM
      1 C         138.6417  144.7435  162.3383 C.3     1  UNL1        0.1056
      2 N         138.7238  143.6063  163.3129 N.3     1  UNL1       -0.2682
      3 C         139.4940  143.7670  164.5900 C.3     1  UNL1        0.0897
      4 C         139.5761  142.6298  165.5646 C.3     1  UNL1        0.0899
      5 N         138.8878  141.3317  165.2622 N.3     1  UNL1       -0.2664
      6 C         138.1176  141.1709  163.9852 C.3     1  UNL1        0.0899
      7 C         138.0355  142.3082  163.0105 C.3     1  UNL1        0.0897
      8 C         138.9699  140.1945  166.2369 C.3     1  UNL1        0.1023
      9 C         140.2837  139.8418  166.8690 C.ar    1  UNL1        0.0319
     10 C         141.3737  139.2284  166.0410 C.ar    1  UNL1        0.1383
     11 F         141.1499  138.9677  164.5808 F       1  UNL1       -0.2044
     12 C         142.6874  138.8756  166.6731 C.ar    1  UNL1        0.0294
     13 C         142.9112  139.1363  168.1333 C.ar    1  UNL1        0.0032
     14 C         141.8212  139.7497  168.9613 C.ar    1  UNL1        0.0113
     15 C         140.5074  140.1024  168.3291 C.ar    1  UNL1        0.0572
     16 CL        139.4174  140.7158  169.1571 Cl      1  UNL1       -0.0825
     17 O         140.2346  146.7943  162.2547 O.3     1  UNL1       -0.3793
     18 C         139.8971  145.3937  161.8371 C.3     1  UNL1        0.1700
     19 H         141.0724  147.0609  161.8449 H       1  UNL1        0.2106
     20 C         140.8151  144.6432  160.9182 C.3     1  UNL1        0.2358
     21 O         142.2960  144.6654  161.1553 O.3     1  UNL1       -0.4728
     22 C         142.9616  143.5150  161.8510 C.ar    1  UNL1        0.1387
     23 C         144.4564  143.4718  161.9666 C.ar    1  UNL1        0.0368
     24 C         145.1219  142.3215  162.6623 C.ar    1  UNL1        0.0070
     25 C         144.2924  141.2145  163.2423 C.ar    1  UNL1        0.0716
     26 C         142.7976  141.2577  163.1267 C.ar    1  UNL1        0.0070
     27 C         142.1321  142.4080  162.4311 C.ar    1  UNL1        0.0368
     28 C         144.9580  140.0642  163.9380 C.3     1  UNL1        0.4186
     29 F         145.6234  138.9139  164.6337 F       1  UNL1       -0.1659
     30 F         146.0742  140.9695  164.3672 F       1  UNL1       -0.1659
     31 F         143.8417  139.1588  163.5088 F       1  UNL1       -0.1659
@<TRIPOS>BOND
     1    18    17    1
     2    18    20    1
     3    20    21    1
     4    21    22    1
     5    22    23   ar
     6    23    24   ar
     7    24    25   ar
     8    25    28    1
     9    28    29    1
    10    28    30    1
    11    28    31    1
    12    25    26   ar
    13    26    27   ar
    14    18     1    1
    15     1     2    1
    16     2     3    1
    17     3     4    1
    18     4     5    1
    19     5     8    1
    20     8     9    1
    21     9    10   ar
    22    10    11    1
    23    10    12   ar
    24    12    13   ar
    25    13    14   ar
    26    14    15   ar
    27    15    16    1
    28     5     6    1
    29     6     7    1
    30    27    22   ar
    31     7     2    1
    32    15     9   ar
    33    17    19    1
@<TRIPOS>MOLECULE
*****
 31 33 0 0 0
SMALL
GASTEIGER

@<TRIPOS>ATOM
      1 C         143.9931  139.7992  162.4158 C.3     1  UNL1        0.1056
      2 N         143.2025  139.8883  163.6874 N.3     1  UNL1       -0.2682
      3 C         141.9907  140.7698  163.7569 C.3     1  UNL1        0.0897
      4 C         141.2001  140.8589  165.0285 C.3     1  UNL1        0.0899
      5 N         141.6211  140.0666  166.2306 N.3     1  UNL1       -0.2664
      6 C         142.8328  139.1852  166.1611 C.3     1  UNL1        0.0899
      7 C         143.6235  139.0961  164.8895 C.3     1  UNL1        0.0897
      8 C         140.8305  140.1558  167.5021 C.3     1  UNL1        0.1023
      9 C         141.3658  140.9378  168.6649 C.ar    1  UNL1        0.0319
     10 C         142.1585  140.2451  169.7334 C.ar    1  UNL1        0.1383
     11 F         142.4159  138.7703  169.6392 F       1  UNL1       -0.2044
     12 C         142.6937  141.0270  170.8961 C.ar    1  UNL1        0.0294
     13 C         142.4363  142.5018  170.9904 C.ar    1  UNL1        0.0032
     14 C         141.6436  143.1946  169.9219 C.ar    1  UNL1        0.0113
     15 C         141.1084  142.4125  168.7591 C.ar    1  UNL1        0.0572
     16 CL        140.3157  143.1053  167.6906 Cl      1  UNL1       -0.0825
     17 O         144.7458  137.5642  161.3259 O.3     1  UNL1       -0.3793
     18 C         143.7449  138.6738  161.4557 C.3     1  UNL1        0.1700
     19 H         144.4345  136.9233  160.6677 H       1  UNL1        0.2106
     20 C         142.4957  138.6580  160.6254 C.3     1  UNL1        0.2358
     21 O         141.4073  137.6708  160.9267 O.3     1  UNL1       -0.4728
     22 C         140.5792  137.8232  162.1682 C.ar    1  UNL1        0.1387
     23 C         140.9639  137.0928  163.4206 C.ar    1  UNL1        0.0368
     24 C         140.1358  137.2451  164.6620 C.ar    1  UNL1        0.0070
     25 C         138.9231  138.1278  164.6509 C.ar    1  UNL1        0.0716
     26 C         138.5384  138.8582  163.3985 C.ar    1  UNL1        0.0070
     27 C         139.3665  138.7059  162.1572 C.ar    1  UNL1        0.0368
     28 C         138.0950  138.2801  165.8924 C.3     1  UNL1        0.4186
     29 F         137.2670  138.4325  167.1338 F       1  UNL1       -0.1659
     30 F         138.1492  136.7971  166.1106 F       1  UNL1       -0.1659
     31 F         138.0408  139.7632  165.6742 F       1  UNL1       -0.1659
@<TRIPOS>BOND
     1    18    17    1
     2    18    20    1
     3    20    21    1
     4    21    22    1
     5    22    23   ar
     6    23    24   ar
     7    24    25   ar
     8    25    28    1
     9    28    29    1
    10    28    30    1
    11    28    31    1
    12    25    26   ar
    13    26    27   ar
    14    18     1    1
    15     1     2    1
    16     2     3    1
    17     3     4    1
    18     4     5    1
    19     5     8    1
    20     8     9    1
    21     9    10   ar
    22    10    11    1
    23    10    12   ar
    24    12    13   ar
    25    13    14   ar
    26    14    15   ar
    27    15    16    1
    28     5     6    1
    29     6     7    1
    30    27    22   ar
    31     7     2    1
    32    15     9   ar
    33    17    19    1
@<TRIPOS>MOLECULE
*****
 31 33 0 0 0
SMALL
GASTEIGER

@<TRIPOS>ATOM
      1 C         139.7827  144.3741  159.1790 C.3     1  UNL1        0.1056
      2 N         139.8300  142.9126  159.5131 N.3     1  UNL1       -0.2682
      3 C         141.0002  142.3529  160.2663 C.3     1  UNL1        0.0897
      4 C         141.0475  140.8914  160.6005 C.3     1  UNL1        0.0899
      5 N         139.9246  139.9895  160.1814 N.3     1  UNL1       -0.2664
      6 C         138.7544  140.5491  159.4282 C.3     1  UNL1        0.0899
      7 C         138.7071  142.0107  159.0940 C.3     1  UNL1        0.0897
      8 C         139.9719  138.5280  160.5155 C.3     1  UNL1        0.1023
      9 C         140.0421  138.0880  161.9478 C.ar    1  UNL1        0.0319
     10 C         138.7961  138.0479  162.7820 C.ar    1  UNL1        0.1383
     11 F         137.4799  138.4479  162.1839 F       1  UNL1       -0.2044
     12 C         138.8663  137.6079  164.2143 C.ar    1  UNL1        0.0294
     13 C         140.1825  137.2079  164.8124 C.ar    1  UNL1        0.0032
     14 C         141.4285  137.2479  163.9782 C.ar    1  UNL1        0.0113
     15 C         141.3583  137.6880  162.5459 C.ar    1  UNL1        0.0572
     16 CL        142.6043  137.7281  161.7117 Cl      1  UNL1       -0.0825
     17 O         141.9016  145.8368  159.5268 O.3     1  UNL1       -0.3793
     18 C         140.5619  145.3571  160.0015 C.3     1  UNL1        0.1700
     19 H         142.2674  146.4633  160.1707 H       1  UNL1        0.2106
     20 C         140.0015  145.8604  161.2987 C.3     1  UNL1        0.2358
     21 O         138.7438  145.2616  161.8550 O.3     1  UNL1       -0.4728
     22 C         138.8226  144.1541  162.8636 C.ar    1  UNL1        0.1387
     23 C         138.0057  142.9101  162.6769 C.ar    1  UNL1        0.0368
     24 C         138.0846  141.8027  163.6856 C.ar    1  UNL1        0.0070
     25 C         138.9804  141.9394  164.8810 C.ar    1  UNL1        0.0716
     26 C         139.7973  143.1835  165.0677 C.ar    1  UNL1        0.0070
     27 C         139.7184  144.2908  164.0590 C.ar    1  UNL1        0.0368
     28 C         139.0593  140.8319  165.8896 C.3     1  UNL1        0.4186
     29 F         139.1381  139.7245  166.8983 F       1  UNL1       -0.1659
     30 F         140.3459  141.3992  166.4119 F       1  UNL1       -0.1659
     31 F         137.7727  140.2647  165.3674 F       1  UNL1       -0.1659
@<TRIPOS>BOND
     1    18    17    1
     2    18    20    1
     3    20    21    1
     4    21    22    1
     5    22    23   ar
     6    23    24   ar
     7    24    25   ar
     8    25    28    1
     9    28    29    1
    10    28    30    1
    11    28    31    1
    12    25    26   ar
    13    26    27   ar
    14    18     1    1
    15     1     2    1
    16     2     3    1
    17     3     4    1
    18     4     5    1
    19     5     8    1
    20     8     9    1
    21     9    10   ar
    22    10    11    1
    23    10    12   ar
    24    12    13   ar
    25    13    14   ar
    26    14    15   ar
    27    15    16    1
    28     5     6    1
    29     6     7    1
    30    27    22   ar
    31     7     2    1
    32    15     9   ar
    33    17    19    1
@<TRIPOS>MOLECULE
*****
 31 33 0 0 0
SMALL
GASTEIGER

@<TRIPOS>ATOM
      1 C         140.6638  145.1328  160.3539 C.3     1  UNL1        0.1056
      2 N         141.3522  143.8456  160.6992 N.3     1  UNL1       -0.2682
      3 C         142.6507  143.8675  161.4499 C.3     1  UNL1        0.0897
      4 C         143.3392  142.5803  161.7952 C.3     1  UNL1        0.0899
      5 N         142.7292  141.2713  161.3898 N.3     1  UNL1       -0.2664
      6 C         141.4307  141.2494  160.6392 C.3     1  UNL1        0.0899
      7 C         140.7422  142.5366  160.2938 C.3     1  UNL1        0.0897
      8 C         143.4176  139.9842  161.7351 C.3     1  UNL1        0.1023
      9 C         143.2003  139.3545  163.0792 C.ar    1  UNL1        0.0319
     10 C         141.9925  138.4982  163.3198 C.ar    1  UNL1        0.1383
     11 F         141.0019  138.2716  162.2164 F       1  UNL1       -0.2044
     12 C         141.7753  137.8685  164.6638 C.ar    1  UNL1        0.0294
     13 C         142.7659  138.0951  165.7672 C.ar    1  UNL1        0.0032
     14 C         143.9737  138.9514  165.5265 C.ar    1  UNL1        0.0113
     15 C         144.1909  139.5811  164.1825 C.ar    1  UNL1        0.0572
     16 CL        145.3987  140.4374  163.9419 Cl      1  UNL1       -0.0825
     17 O         139.1621  147.1268  161.0741 O.3     1  UNL1       -0.3793
     18 C         139.6884  145.7432  161.3162 C.3     1  UNL1        0.1700
     19 H         138.5472  147.3677  161.7846 H       1  UNL1        0.2106
     20 C         139.2393  144.9700  162.5206 C.3     1  UNL1        0.2358
     21 O         138.0962  144.0052  162.4091 O.3     1  UNL1       -0.4728
     22 C         138.1640  142.6783  163.1054 C.ar    1  UNL1        0.1387
     23 C         137.7677  141.4282  162.3774 C.ar    1  UNL1        0.0368
     24 C         137.8355  140.1013  163.0738 C.ar    1  UNL1        0.0070
     25 C         138.2996  140.0247  164.4981 C.ar    1  UNL1        0.0716
     26 C         138.6960  141.2748  165.2261 C.ar    1  UNL1        0.0070
     27 C         138.6282  142.6016  164.5297 C.ar    1  UNL1        0.0368
     28 C         138.3674  138.6978  165.1944 C.3     1  UNL1        0.4186
     29 F         138.4352  137.3710  165.8908 F       1  UNL1       -0.1659
     30 F         138.5794  138.0162  163.8752 F       1  UNL1       -0.1659
     31 F         138.1555  139.3793  166.5137 F       1  UNL1       -0.1659
@<TRIPOS>BOND
     1    18    17    1
     2    18    20    1
     3    20    21    1
     4    21    22    1
     5    22    23   ar
     6    23    24   ar
     7    24    25   ar
     8    25    28    1
     9    28    29    1
    10    28    30    1
    11    28    31    1
    12    25    26   ar
    13    26    27   ar
    14    18     1    1
    15     1     2    1
    16     2     3    1
    17     3     4    1
    18     4     5    1
    19     5     8    1
    20     8     9    1
    21     9    10   ar
    22    10    11    1
    23    10    12   ar
    24    12    13   ar
    25    13    14   ar
    26    14    15   ar
    27    15    16    1
    28     5     6    1
    29     6     7    1
    30    27    22   ar
    31     7     2    1
    32    15     9   ar
    33    17    19    1
@<TRIPOS>MOLECULE
*****
 31 33 0 0 0
SMALL
GASTEIGER

@<TRIPOS>ATOM
      1 C         139.8668  144.3034  159.1984 C.3     1  UNL1        0.1056
      2 N         140.0014  142.8528  159.5558 N.3     1  UNL1       -0.2682
      3 C         141.1223  142.4000  160.4438 C.3     1  UNL1        0.0897
      4 C         141.2569  140.9494  160.8012 C.3     1  UNL1        0.0899
      5 N         140.2705  139.9517  160.2705 N.3     1  UNL1       -0.2664
      6 C         139.1496  140.4044  159.3825 C.3     1  UNL1        0.0899
      7 C         139.0150  141.8550  159.0251 C.3     1  UNL1        0.0897
      8 C         140.4051  138.5011  160.6279 C.3     1  UNL1        0.1023
      9 C         140.2849  138.0669  162.0587 C.ar    1  UNL1        0.0319
     10 C         141.5134  137.6976  162.8361 C.ar    1  UNL1        0.1383
     11 F         142.8621  137.7625  162.1827 F       1  UNL1       -0.2044
     12 C         141.3933  137.2633  164.2668 C.ar    1  UNL1        0.0294
     13 C         140.0446  137.1984  164.9202 C.ar    1  UNL1        0.0032
     14 C         138.8161  137.5677  164.1428 C.ar    1  UNL1        0.0113
     15 C         138.9362  138.0019  162.7120 C.ar    1  UNL1        0.0572
     16 CL        137.7077  138.3712  161.9346 Cl      1  UNL1       -0.0825
     17 O         141.9017  145.8719  159.5840 O.3     1  UNL1       -0.3793
     18 C         140.5661  145.3460  160.0193 C.3     1  UNL1        0.1700
     19 H         142.2118  146.5342  160.2213 H       1  UNL1        0.2106
     20 C         139.9298  145.8627  161.2756 C.3     1  UNL1        0.2358
     21 O         138.6844  145.2165  161.8061 O.3     1  UNL1       -0.4728
     22 C         138.7840  144.1189  162.8237 C.ar    1  UNL1        0.1387
     23 C         137.9680  142.8707  162.6627 C.ar    1  UNL1        0.0368
     24 C         138.0676  141.7732  163.6803 C.ar    1  UNL1        0.0070
     25 C         138.9831  141.9240  164.8589 C.ar    1  UNL1        0.0716
     26 C         139.7991  143.1722  165.0199 C.ar    1  UNL1        0.0070
     27 C         139.6995  144.2697  164.0023 C.ar    1  UNL1        0.0368
     28 C         139.0827  140.8264  165.8765 C.3     1  UNL1        0.4186
     29 F         139.1822  139.7288  166.8940 F       1  UNL1       -0.1659
     30 F         140.3809  141.3972  166.3652 F       1  UNL1       -0.1659
     31 F         137.7845  140.2556  165.3878 F       1  UNL1       -0.1659
@<TRIPOS>BOND
     1    18    17    1
     2    18    20    1
     3    20    21    1
     4    21    22    1
     5    22    23   ar
     6    23    24   ar
     7    24    25   ar
     8    25    28    1
     9    28    29    1
    10    28    30    1
    11    28    31    1
    12    25    26   ar
    13    26    27   ar
    14    18     1    1
    15     1     2    1
    16     2     3    1
    17     3     4    1
    18     4     5    1
    19     5     8    1
    20     8     9    1
    21     9    10   ar
    22    10    11    1
    23    10    12   ar
    24    12    13   ar
    25    13    14   ar
    26    14    15   ar
    27    15    16    1
    28     5     6    1
    29     6     7    1
    30    27    22   ar
    31     7     2    1
    32    15     9   ar
    33    17    19    1
@<TRIPOS>MOLECULE
*****
 31 33 0 0 0
SMALL
GASTEIGER

@<TRIPOS>ATOM
      1 C         141.3827  145.2550  162.1633 C.3     1  UNL1        0.1056
      2 N         141.3643  144.1913  163.2207 N.3     1  UNL1       -0.2682
      3 C         142.2683  143.0001  163.1021 C.3     1  UNL1        0.0897
      4 C         142.2499  141.9364  164.1595 C.3     1  UNL1        0.0899
      5 N         141.3276  142.0638  165.3356 N.3     1  UNL1       -0.2664
      6 C         140.4237  143.2549  165.4542 C.3     1  UNL1        0.0899
      7 C         140.4420  144.3187  164.3968 C.3     1  UNL1        0.0897
      8 C         141.3093  141.0001  166.3930 C.3     1  UNL1        0.1023
      9 C         141.5586  141.3635  167.8269 C.ar    1  UNL1        0.0319
     10 C         142.7693  142.1679  168.1971 C.ar    1  UNL1        0.1383
     11 F         143.7308  142.6089  167.1334 F       1  UNL1       -0.2044
     12 C         143.0186  142.5314  169.6308 C.ar    1  UNL1        0.0294
     13 C         142.0572  142.0904  170.6945 C.ar    1  UNL1        0.0032
     14 C         140.8465  141.2860  170.3243 C.ar    1  UNL1        0.0113
     15 C         140.5972  140.9226  168.8904 C.ar    1  UNL1        0.0572
     16 CL        139.3864  140.1182  168.5202 Cl      1  UNL1       -0.0825
     17 O         139.1922  146.4783  161.4885 O.3     1  UNL1       -0.3793
     18 C         140.2145  145.4102  161.2353 C.3     1  UNL1        0.1700
     19 H         138.5093  146.4418  160.8007 H       1  UNL1        0.2106
     20 C         140.0685  144.4972  160.0541 C.3     1  UNL1        0.2358
     21 O         138.9691  143.4771  160.0259 O.3     1  UNL1       -0.4728
     22 C         138.7704  142.5562  161.1932 C.ar    1  UNL1        0.1387
     23 C         139.5660  141.2884  161.2922 C.ar    1  UNL1        0.0368
     24 C         139.3673  140.3675  162.4594 C.ar    1  UNL1        0.0070
     25 C         138.3730  140.7144  163.5276 C.ar    1  UNL1        0.0716
     26 C         137.5774  141.9822  163.4286 C.ar    1  UNL1        0.0070
     27 C         137.7762  142.9030  162.2614 C.ar    1  UNL1        0.0368
     28 C         138.1743  139.7934  164.6949 C.3     1  UNL1        0.4186
     29 F         137.9756  138.8726  165.8621 F       1  UNL1       -0.1659
     30 F         138.2989  138.6097  163.7822 F       1  UNL1       -0.1659
     31 F         138.0497  140.9772  165.6076 F       1  UNL1       -0.1659
@<TRIPOS>BOND
     1    18    17    1
     2    18    20    1
     3    20    21    1
     4    21    22    1
     5    22    23   ar
     6    23    24   ar
     7    24    25   ar
     8    25    28    1
     9    28    29    1
    10    28    30    1
    11    28    31    1
    12    25    26   ar
    13    26    27   ar
    14    18     1    1
    15     1     2    1
    16     2     3    1
    17     3     4    1
    18     4     5    1
    19     5     8    1
    20     8     9    1
    21     9    10   ar
    22    10    11    1
    23    10    12   ar
    24    12    13   ar
    25    13    14   ar
    26    14    15   ar
    27    15    16    1
    28     5     6    1
    29     6     7    1
    30    27    22   ar
    31     7     2    1
    32    15     9   ar
    33    17    19    1
