@<TRIPOS>MOLECULE
*****
 40 44 0 0 0
SMALL
GASTEIGER

@<TRIPOS>ATOM
      1 C         140.9973  140.1893  165.2975 C.3     1  UNL1        0.0776
      2 C         142.6462  139.6255  163.3704 C.ar    1  UNL1        0.2211
      3 N         143.0069  139.6683  161.9151 N.ar    1  UNL1       -0.2119
      4 C         142.0793  140.3179  160.9313 C.ar    1  UNL1        0.0843
      5 C         142.4400  140.3607  159.4760 C.ar    1  UNL1        0.0190
      6 C         141.5124  141.0102  158.4923 C.ar    1  UNL1       -0.0003
      7 C         140.2242  141.6169  158.9639 C.ar    1  UNL1        0.0070
      8 C         139.8635  141.5740  160.4192 C.ar    1  UNL1       -0.0004
      9 C         140.7911  140.9245  161.4029 C.ar    1  UNL1        0.0174
     10 C         140.4304  140.8817  162.8583 C.ar    1  UNL1        0.0022
     11 C         141.3580  140.2322  163.8421 C.ar    1  UNL1        0.0373
     12 C         139.2966  142.2664  157.9800 C.3     1  UNL1        0.1636
     13 O         138.0413  142.9325  158.4599 O.3     1  UNL1       -0.3772
     14 H         137.4429  142.2654  158.8311 H       1  UNL1        0.2109
     15 C         145.0028  139.4227  164.4453 C.3     1  UNL1        0.2542
     16 O         143.5738  138.9760  164.3543 O.3     1  UNL1       -0.4563
     17 C         139.8717  139.3155  165.7658 C.ar    1  UNL1       -0.0157
     18 C         139.5793  138.0255  165.0584 C.ar    1  UNL1       -0.0039
     19 C         138.4537  137.1517  165.5267 C.ar    1  UNL1       -0.0003
     20 C         137.6203  137.5679  166.7024 C.ar    1  UNL1       -0.0000
     21 C         137.9126  138.8579  167.4098 C.ar    1  UNL1       -0.0003
     22 C         139.0383  139.7317  166.9415 C.ar    1  UNL1       -0.0039
     23 C         141.7623  141.0203  166.2845 C.3     1  UNL1        0.1158
     24 O         142.3332  139.7733  166.8919 O.3     1  UNL1       -0.3820
     25 H         143.0963  139.4796  166.3701 H       1  UNL1        0.2107
     26 C         141.1914  142.2673  165.6771 C.ar    1  UNL1        0.0024
     27 C         139.7518  142.6216  165.9053 C.ar    1  UNL1       -0.0020
     28 C         139.1809  143.8687  165.2979 C.ar    1  UNL1       -0.0002
     29 C         140.0496  144.7614  164.4623 C.ar    1  UNL1       -0.0000
     30 C         141.4892  144.4072  164.2340 C.ar    1  UNL1       -0.0002
     31 C         142.3579  145.3000  163.3984 C.ar    1  UNL1       -0.0000
     32 C         143.7975  144.9457  163.1702 C.ar    1  UNL1       -0.0000
     33 C         144.3684  143.6987  163.7776 C.ar    1  UNL1       -0.0000
     34 C         143.4997  142.8059  164.6132 C.ar    1  UNL1       -0.0002
     35 C         142.0601  143.1601  164.8415 C.ar    1  UNL1       -0.0018
     36 C         142.5273  141.8513  167.2715 C.3     1  UNL1        0.0491
     37 C         142.5858  141.4394  168.7127 C.3     1  UNL1        0.0750
     38 N         141.3169  141.2259  169.4838 N.3     1  UNL1       -0.2702
     39 C         140.3080  142.3310  169.5886 C.3     1  UNL1        0.0897
     40 C         141.0570  139.9074  170.1500 C.3     1  UNL1        0.0897
@<TRIPOS>BOND
     1    15    16    1
     2    16     2    1
     3     2     3   ar
     4     3     4   ar
     5     4     5   ar
     6     5     6   ar
     7     6     7   ar
     8     7    12    1
     9    12    13    1
    10     7     8   ar
    11     8     9   ar
    12     9    10   ar
    13    10    11   ar
    14    11     1    1
    15     1    17    1
    16    17    18   ar
    17    18    19   ar
    18    19    20   ar
    19    20    21   ar
    20    21    22   ar
    21     1    23    1
    22    23    24    1
    23    23    36    1
    24    36    37    1
    25    37    38    1
    26    38    39    1
    27    38    40    1
    28    23    26    1
    29    26    27   ar
    30    27    28   ar
    31    28    29   ar
    32    29    30   ar
    33    30    31   ar
    34    31    32   ar
    35    32    33   ar
    36    33    34   ar
    37    34    35   ar
    38    11     2   ar
    39    22    17   ar
    40    35    26   ar
    41     9     4   ar
    42    35    30   ar
    43    13    14    1
    44    24    25    1
@<TRIPOS>MOLECULE
*****
 40 44 0 0 0
SMALL
GASTEIGER

@<TRIPOS>ATOM
      1 C         139.5584  140.7947  164.6568 C.3     1  UNL1        0.0776
      2 C         139.0282  139.8938  167.0353 C.ar    1  UNL1        0.2211
      3 N         139.3334  139.8429  168.5030 N.ar    1  UNL1       -0.2119
      4 C         140.4742  140.6420  169.0601 C.ar    1  UNL1        0.0843
      5 C         140.7794  140.5910  170.5278 C.ar    1  UNL1        0.0190
      6 C         141.9201  141.3901  171.0847 C.ar    1  UNL1       -0.0003
      7 C         142.7556  142.2401  170.1740 C.ar    1  UNL1        0.0070
      8 C         142.4504  142.2910  168.7063 C.ar    1  UNL1       -0.0004
      9 C         141.3097  141.4920  168.1493 C.ar    1  UNL1        0.0174
     10 C         141.0044  141.5429  166.6815 C.ar    1  UNL1        0.0022
     11 C         139.8637  140.7438  166.1246 C.ar    1  UNL1        0.0373
     12 C         143.8964  143.0392  170.7310 C.3     1  UNL1        0.1636
     13 O         143.6268  144.3141  171.4738 O.3     1  UNL1       -0.3772
     14 H         143.2513  144.9696  170.8653 H       1  UNL1        0.2109
     15 C         137.2981  137.9708  167.2780 C.3     1  UNL1        0.2542
     16 O         137.8874  139.0947  166.4783 O.3     1  UNL1       -0.4563
     17 C         139.2681  142.1099  163.9963 C.ar    1  UNL1       -0.0157
     18 C         140.2290  143.2520  164.1450 C.ar    1  UNL1       -0.0039
     19 C         139.9387  144.5672  163.4846 C.ar    1  UNL1       -0.0003
     20 C         138.6876  144.7401  162.6754 C.ar    1  UNL1       -0.0000
     21 C         137.7267  143.5979  162.5267 C.ar    1  UNL1       -0.0003
     22 C         138.0170  142.2828  163.1871 C.ar    1  UNL1       -0.0039
     23 C         139.5434  139.5306  163.8496 C.3     1  UNL1        0.1158
     24 O         138.0503  139.6203  163.7369 O.3     1  UNL1       -0.3820
     25 H         137.8163  140.2233  163.0140 H       1  UNL1        0.2107
     26 C         141.0364  139.4409  163.9623 C.ar    1  UNL1        0.0024
     27 C         141.6585  138.6582  165.0806 C.ar    1  UNL1       -0.0020
     28 C         143.1515  138.5685  165.1933 C.ar    1  UNL1       -0.0002
     29 C         144.0226  139.2614  164.1878 C.ar    1  UNL1       -0.0000
     30 C         143.4006  140.0441  163.0696 C.ar    1  UNL1       -0.0002
     31 C         144.2716  140.7371  162.0641 C.ar    1  UNL1       -0.0000
     32 C         143.6496  141.5198  160.9458 C.ar    1  UNL1       -0.0000
     33 C         142.1565  141.6095  160.8331 C.ar    1  UNL1       -0.0000
     34 C         141.2855  140.9165  161.8386 C.ar    1  UNL1       -0.0002
     35 C         141.9075  140.1339  162.9568 C.ar    1  UNL1       -0.0018
     36 C         139.5284  138.2664  163.0424 C.3     1  UNL1        0.0491
     37 C         138.4721  138.0557  161.9984 C.3     1  UNL1        0.0750
     38 N         138.5419  138.8028  160.6994 N.3     1  UNL1       -0.2702
     39 C         137.5319  139.8682  160.3918 C.3     1  UNL1        0.0897
     40 C         139.6217  138.4844  159.7082 C.3     1  UNL1        0.0897
@<TRIPOS>BOND
     1    15    16    1
     2    16     2    1
     3     2     3   ar
     4     3     4   ar
     5     4     5   ar
     6     5     6   ar
     7     6     7   ar
     8     7    12    1
     9    12    13    1
    10     7     8   ar
    11     8     9   ar
    12     9    10   ar
    13    10    11   ar
    14    11     1    1
    15     1    17    1
    16    17    18   ar
    17    18    19   ar
    18    19    20   ar
    19    20    21   ar
    20    21    22   ar
    21     1    23    1
    22    23    24    1
    23    23    36    1
    24    36    37    1
    25    37    38    1
    26    38    39    1
    27    38    40    1
    28    23    26    1
    29    26    27   ar
    30    27    28   ar
    31    28    29   ar
    32    29    30   ar
    33    30    31   ar
    34    31    32   ar
    35    32    33   ar
    36    33    34   ar
    37    34    35   ar
    38    11     2   ar
    39    22    17   ar
    40    35    26   ar
    41     9     4   ar
    42    35    30   ar
    43    13    14    1
    44    24    25    1
@<TRIPOS>MOLECULE
*****
 40 44 0 0 0
SMALL
GASTEIGER

@<TRIPOS>ATOM
      1 C         140.2968  140.7933  165.4278 C.3     1  UNL1        0.0776
      2 C         139.4600  142.5420  163.6980 C.ar    1  UNL1        0.2211
      3 N         139.4451  143.0800  162.2979 N.ar    1  UNL1       -0.2119
      4 C         140.2523  142.4073  161.2274 C.ar    1  UNL1        0.0843
      5 C         140.2374  142.9453  159.8273 C.ar    1  UNL1        0.0190
      6 C         141.0446  142.2726  158.7568 C.ar    1  UNL1       -0.0003
      7 C         141.8666  141.0619  159.0864 C.ar    1  UNL1        0.0070
      8 C         141.8814  140.5240  160.4865 C.ar    1  UNL1       -0.0004
      9 C         141.0743  141.1966  161.5570 C.ar    1  UNL1        0.0174
     10 C         141.0891  140.6586  162.9572 C.ar    1  UNL1        0.0022
     11 C         140.2820  141.3313  164.0276 C.ar    1  UNL1        0.0373
     12 C         142.6737  140.3893  158.0158 C.3     1  UNL1        0.1636
     13 O         143.7803  139.4485  158.3904 O.3     1  UNL1       -0.3772
     14 H         144.4850  139.9408  158.8398 H       1  UNL1        0.2109
     15 C         138.6928  144.7073  164.9118 C.3     1  UNL1        0.2542
     16 O         138.6528  143.2146  164.7686 O.3     1  UNL1       -0.4563
     17 C         139.4392  139.6166  165.7883 C.ar    1  UNL1       -0.0157
     18 C         138.5501  139.6781  166.9947 C.ar    1  UNL1       -0.0039
     19 C         137.6925  138.5013  167.3552 C.ar    1  UNL1       -0.0003
     20 C         137.7241  137.2632  166.5091 C.ar    1  UNL1       -0.0000
     21 C         138.6133  137.2016  165.3026 C.ar    1  UNL1       -0.0003
     22 C         139.4708  138.3784  164.9421 C.ar    1  UNL1       -0.0039
     23 C         141.1691  141.4321  166.4675 C.3     1  UNL1        0.1158
     24 O         140.0184  142.2879  166.9072 O.3     1  UNL1       -0.3820
     25 H         139.4570  141.7856  167.5183 H       1  UNL1        0.2107
     26 C         142.3198  140.5763  166.0278 C.ar    1  UNL1        0.0024
     27 C         142.4075  139.1481  166.4781 C.ar    1  UNL1       -0.0020
     28 C         143.5582  138.2923  166.0383 C.ar    1  UNL1       -0.0002
     29 C         144.6213  138.8646  165.1483 C.ar    1  UNL1       -0.0000
     30 C         144.5338  140.2927  164.6980 C.ar    1  UNL1       -0.0002
     31 C         145.5969  140.8650  163.8079 C.ar    1  UNL1       -0.0000
     32 C         145.5093  142.2932  163.3576 C.ar    1  UNL1       -0.0000
     33 C         144.3586  143.1490  163.7973 C.ar    1  UNL1       -0.0000
     34 C         143.2954  142.5767  164.6874 C.ar    1  UNL1       -0.0002
     35 C         143.3830  141.1486  165.1377 C.ar    1  UNL1       -0.0018
     36 C         142.0415  142.0708  167.5072 C.3     1  UNL1        0.0491
     37 C         141.5165  142.2899  168.8951 C.3     1  UNL1        0.0750
     38 N         140.8503  141.1654  169.6312 N.3     1  UNL1       -0.2702
     39 C         139.4406  141.3199  170.1198 C.3     1  UNL1        0.0897
     40 C         141.5938  139.8863  169.8785 C.3     1  UNL1        0.0897
@<TRIPOS>BOND
     1    15    16    1
     2    16     2    1
     3     2     3   ar
     4     3     4   ar
     5     4     5   ar
     6     5     6   ar
     7     6     7   ar
     8     7    12    1
     9    12    13    1
    10     7     8   ar
    11     8     9   ar
    12     9    10   ar
    13    10    11   ar
    14    11     1    1
    15     1    17    1
    16    17    18   ar
    17    18    19   ar
    18    19    20   ar
    19    20    21   ar
    20    21    22   ar
    21     1    23    1
    22    23    24    1
    23    23    36    1
    24    36    37    1
    25    37    38    1
    26    38    39    1
    27    38    40    1
    28    23    26    1
    29    26    27   ar
    30    27    28   ar
    31    28    29   ar
    32    29    30   ar
    33    30    31   ar
    34    31    32   ar
    35    32    33   ar
    36    33    34   ar
    37    34    35   ar
    38    11     2   ar
    39    22    17   ar
    40    35    26   ar
    41     9     4   ar
    42    35    30   ar
    43    13    14    1
    44    24    25    1
@<TRIPOS>MOLECULE
*****
 40 44 0 0 0
SMALL
GASTEIGER

@<TRIPOS>ATOM
      1 C         141.6611  141.3444  163.6035 C.3     1  UNL1        0.0776
      2 C         143.5366  142.8766  162.6629 C.ar    1  UNL1        0.2211
      3 N         144.4699  143.2543  161.5510 N.ar    1  UNL1       -0.2119
      4 C         144.4610  142.4775  160.2678 C.ar    1  UNL1        0.0843
      5 C         145.3943  142.8552  159.1560 C.ar    1  UNL1        0.0190
      6 C         145.3854  142.0784  157.8728 C.ar    1  UNL1       -0.0003
      7 C         144.4432  140.9239  157.7016 C.ar    1  UNL1        0.0070
      8 C         143.5099  140.5462  158.8134 C.ar    1  UNL1       -0.0004
      9 C         143.5188  141.3230  160.0965 C.ar    1  UNL1        0.0174
     10 C         142.5855  140.9453  161.2085 C.ar    1  UNL1        0.0022
     11 C         142.5944  141.7221  162.4916 C.ar    1  UNL1        0.0373
     12 C         144.4343  140.1471  156.4184 C.3     1  UNL1        0.1636
     13 O         145.6745  139.4366  155.9632 O.3     1  UNL1       -0.3772
     14 H         146.3619  140.0881  155.7537 H       1  UNL1        0.2109
     15 C         143.6047  145.1519  163.9152 C.3     1  UNL1        0.2542
     16 O         143.5455  143.6534  163.9461 O.3     1  UNL1       -0.4563
     17 C         142.1613  140.5269  164.7574 C.ar    1  UNL1       -0.0157
     18 C         142.6251  139.1182  164.5333 C.ar    1  UNL1       -0.0039
     19 C         143.1252  138.3007  165.6873 C.ar    1  UNL1       -0.0003
     20 C         143.1617  138.8920  167.0653 C.ar    1  UNL1       -0.0000
     21 C         142.6979  140.3008  167.2895 C.ar    1  UNL1       -0.0003
     22 C         142.1977  141.1183  166.1355 C.ar    1  UNL1       -0.0039
     23 C         140.2277  141.7842  163.5615 C.3     1  UNL1        0.1158
     24 O         140.6598  143.2096  163.7381 O.3     1  UNL1       -0.3820
     25 H         140.9201  143.5774  162.8791 H       1  UNL1        0.2107
     26 C         139.7955  140.3587  163.3848 C.ar    1  UNL1        0.0024
     27 C         139.9519  139.6872  162.0527 C.ar    1  UNL1       -0.0020
     28 C         139.5197  138.2617  161.8760 C.ar    1  UNL1       -0.0002
     29 C         138.9312  137.5077  163.0315 C.ar    1  UNL1       -0.0000
     30 C         138.7748  138.1792  164.3636 C.ar    1  UNL1       -0.0002
     31 C         138.1863  137.4252  165.5191 C.ar    1  UNL1       -0.0000
     32 C         138.0299  138.0967  166.8513 C.ar    1  UNL1       -0.0000
     33 C         138.4621  139.5222  167.0280 C.ar    1  UNL1       -0.0000
     34 C         139.0506  140.2762  165.8725 C.ar    1  UNL1       -0.0002
     35 C         139.2070  139.6047  164.5403 C.ar    1  UNL1       -0.0018
     36 C         138.7942  142.2240  163.5195 C.3     1  UNL1        0.0491
     37 C         138.3857  143.3663  162.6373 C.3     1  UNL1        0.0750
     38 N         138.8794  143.4351  161.2225 N.3     1  UNL1       -0.2702
     39 C         139.8163  144.5305  160.8075 C.3     1  UNL1        0.0897
     40 C         138.4360  142.4085  160.2228 C.3     1  UNL1        0.0897
@<TRIPOS>BOND
     1    15    16    1
     2    16     2    1
     3     2     3   ar
     4     3     4   ar
     5     4     5   ar
     6     5     6   ar
     7     6     7   ar
     8     7    12    1
     9    12    13    1
    10     7     8   ar
    11     8     9   ar
    12     9    10   ar
    13    10    11   ar
    14    11     1    1
    15     1    17    1
    16    17    18   ar
    17    18    19   ar
    18    19    20   ar
    19    20    21   ar
    20    21    22   ar
    21     1    23    1
    22    23    24    1
    23    23    36    1
    24    36    37    1
    25    37    38    1
    26    38    39    1
    27    38    40    1
    28    23    26    1
    29    26    27   ar
    30    27    28   ar
    31    28    29   ar
    32    29    30   ar
    33    30    31   ar
    34    31    32   ar
    35    32    33   ar
    36    33    34   ar
    37    34    35   ar
    38    11     2   ar
    39    22    17   ar
    40    35    26   ar
    41     9     4   ar
    42    35    30   ar
    43    13    14    1
    44    24    25    1
@<TRIPOS>MOLECULE
*****
 40 44 0 0 0
SMALL
GASTEIGER

@<TRIPOS>ATOM
      1 C         141.6786  142.2763  162.5004 C.3     1  UNL1        0.0776
      2 C         143.4022  142.3518  164.4430 C.ar    1  UNL1        0.2211
      3 N         143.7173  142.2390  165.9052 N.ar    1  UNL1       -0.2119
      4 C         142.6239  141.9379  166.8870 C.ar    1  UNL1        0.0843
      5 C         142.9390  141.8251  168.3492 C.ar    1  UNL1        0.0190
      6 C         141.8457  141.5239  169.3309 C.ar    1  UNL1       -0.0003
      7 C         140.4372  141.3356  168.8505 C.ar    1  UNL1        0.0070
      8 C         140.1221  141.4484  167.3884 C.ar    1  UNL1       -0.0004
      9 C         141.2155  141.7495  166.4066 C.ar    1  UNL1        0.0174
     10 C         140.9004  141.8623  164.9444 C.ar    1  UNL1        0.0022
     11 C         141.9937  142.1635  163.9626 C.ar    1  UNL1        0.0373
     12 C         139.3439  141.0345  169.8324 C.3     1  UNL1        0.1636
     13 O         139.4613  139.8505  170.7458 O.3     1  UNL1       -0.3772
     14 H         139.4383  139.0344  170.2220 H       1  UNL1        0.2109
     15 C         145.7455  141.8239  163.4531 C.3     1  UNL1        0.2542
     16 O         144.4955  142.6530  163.4612 O.3     1  UNL1       -0.4563
     17 C         141.1112  143.5518  161.9517 C.ar    1  UNL1       -0.0157
     18 C         141.3983  143.9521  160.5349 C.ar    1  UNL1       -0.0039
     19 C         140.8309  145.2276  159.9862 C.ar    1  UNL1       -0.0003
     20 C         139.9765  146.1029  160.8543 C.ar    1  UNL1       -0.0000
     21 C         139.6893  145.7027  162.2712 C.ar    1  UNL1       -0.0003
     22 C         140.2567  144.4272  162.8199 C.ar    1  UNL1       -0.0039
     23 C         141.9309  141.1136  161.5869 C.3     1  UNL1        0.1158
     24 O         143.2766  141.6781  161.2401 O.3     1  UNL1       -0.3820
     25 H         143.9175  141.4300  161.9247 H       1  UNL1        0.2107
     26 C         140.5852  140.5491  161.9338 C.ar    1  UNL1        0.0024
     27 C         139.3449  141.1469  161.3382 C.ar    1  UNL1       -0.0020
     28 C         137.9992  140.5824  161.6850 C.ar    1  UNL1       -0.0002
     29 C         137.8936  139.4202  162.6274 C.ar    1  UNL1       -0.0000
     30 C         139.1337  138.8224  163.2229 C.ar    1  UNL1       -0.0002
     31 C         139.0281  137.6602  164.1653 C.ar    1  UNL1       -0.0000
     32 C         140.2684  137.0624  164.7609 C.ar    1  UNL1       -0.0000
     33 C         141.6141  137.6269  164.4141 C.ar    1  UNL1       -0.0000
     34 C         141.7197  138.7891  163.4717 C.ar    1  UNL1       -0.0002
     35 C         140.4796  139.3869  162.8761 C.ar    1  UNL1       -0.0018
     36 C         142.1832  139.9509  160.6735 C.3     1  UNL1        0.0491
     37 C         143.5288  139.7781  160.0336 C.3     1  UNL1        0.0750
     38 N         143.6477  139.7285  158.5391 N.3     1  UNL1       -0.2702
     39 C         144.4594  140.7626  157.8166 C.3     1  UNL1        0.0897
     40 C         142.9551  138.6449  157.7671 C.3     1  UNL1        0.0897
@<TRIPOS>BOND
     1    15    16    1
     2    16     2    1
     3     2     3   ar
     4     3     4   ar
     5     4     5   ar
     6     5     6   ar
     7     6     7   ar
     8     7    12    1
     9    12    13    1
    10     7     8   ar
    11     8     9   ar
    12     9    10   ar
    13    10    11   ar
    14    11     1    1
    15     1    17    1
    16    17    18   ar
    17    18    19   ar
    18    19    20   ar
    19    20    21   ar
    20    21    22   ar
    21     1    23    1
    22    23    24    1
    23    23    36    1
    24    36    37    1
    25    37    38    1
    26    38    39    1
    27    38    40    1
    28    23    26    1
    29    26    27   ar
    30    27    28   ar
    31    28    29   ar
    32    29    30   ar
    33    30    31   ar
    34    31    32   ar
    35    32    33   ar
    36    33    34   ar
    37    34    35   ar
    38    11     2   ar
    39    22    17   ar
    40    35    26   ar
    41     9     4   ar
    42    35    30   ar
    43    13    14    1
    44    24    25    1
@<TRIPOS>MOLECULE
*****
 40 44 0 0 0
SMALL
GASTEIGER

@<TRIPOS>ATOM
      1 C         140.2680  140.3346  164.2662 C.3     1  UNL1        0.0776
      2 C         141.5931  139.5346  162.1796 C.ar    1  UNL1        0.2211
      3 N         141.6890  139.3487  160.6943 N.ar    1  UNL1       -0.2119
      4 C         140.5554  139.7770  159.8101 C.ar    1  UNL1        0.0843
      5 C         140.6512  139.5912  158.3248 C.ar    1  UNL1        0.0190
      6 C         139.5177  140.0195  157.4407 C.ar    1  UNL1       -0.0003
      7 C         138.2884  140.6337  158.0420 C.ar    1  UNL1        0.0070
      8 C         138.1925  140.8195  159.5273 C.ar    1  UNL1       -0.0004
      9 C         139.3261  140.3912  160.4113 C.ar    1  UNL1        0.0174
     10 C         139.2303  140.5771  161.8968 C.ar    1  UNL1        0.0022
     11 C         140.3638  140.1488  162.7808 C.ar    1  UNL1        0.0373
     12 C         137.1548  141.0620  157.1578 C.3     1  UNL1        0.1636
     13 O         135.8900  140.2566  157.1167 O.3     1  UNL1       -0.3772
     14 H         136.0742  139.3847  156.7336 H       1  UNL1        0.2109
     15 C         144.1113  139.6258  162.8127 C.3     1  UNL1        0.2542
     16 O         142.7267  139.1063  163.0637 O.3     1  UNL1       -0.4563
     17 C         139.4105  139.4144  165.0834 C.ar    1  UNL1       -0.0157
     18 C         138.7179  139.9275  166.3110 C.ar    1  UNL1       -0.0039
     19 C         137.8603  139.0073  167.1282 C.ar    1  UNL1       -0.0003
     20 C         137.6953  137.5741  166.7179 C.ar    1  UNL1       -0.0000
     21 C         138.3879  137.0609  165.4902 C.ar    1  UNL1       -0.0003
     22 C         139.2455  137.9811  164.6730 C.ar    1  UNL1       -0.0039
     23 C         141.0298  141.4406  164.9344 C.3     1  UNL1        0.1158
     24 O         141.9442  140.4312  165.5628 O.3     1  UNL1       -0.3820
     25 H         142.6340  140.1808  164.9285 H       1  UNL1        0.2107
     26 C         140.1154  142.4500  164.3059 C.ar    1  UNL1        0.0024
     27 C         138.7384  142.6632  164.8616 C.ar    1  UNL1       -0.0020
     28 C         137.8240  143.6726  164.2332 C.ar    1  UNL1       -0.0002
     29 C         138.2865  144.4689  163.0491 C.ar    1  UNL1       -0.0000
     30 C         139.6634  144.2558  162.4935 C.ar    1  UNL1       -0.0002
     31 C         140.1258  145.0521  161.3094 C.ar    1  UNL1       -0.0000
     32 C         141.5028  144.8390  160.7537 C.ar    1  UNL1       -0.0000
     33 C         142.4172  143.8296  161.3821 C.ar    1  UNL1       -0.0000
     34 C         141.9547  143.0333  162.5662 C.ar    1  UNL1       -0.0002
     35 C         140.5778  143.2464  163.1219 C.ar    1  UNL1       -0.0018
     36 C         141.7915  142.5466  165.6025 C.3     1  UNL1        0.0491
     37 C         142.7738  142.2298  166.6909 C.3     1  UNL1        0.0750
     38 N         142.3564  142.3240  168.1286 N.3     1  UNL1       -0.2702
     39 C         143.3925  142.3059  169.2131 C.3     1  UNL1        0.0897
     40 C         140.9029  142.4363  168.4818 C.3     1  UNL1        0.0897
@<TRIPOS>BOND
     1    15    16    1
     2    16     2    1
     3     2     3   ar
     4     3     4   ar
     5     4     5   ar
     6     5     6   ar
     7     6     7   ar
     8     7    12    1
     9    12    13    1
    10     7     8   ar
    11     8     9   ar
    12     9    10   ar
    13    10    11   ar
    14    11     1    1
    15     1    17    1
    16    17    18   ar
    17    18    19   ar
    18    19    20   ar
    19    20    21   ar
    20    21    22   ar
    21     1    23    1
    22    23    24    1
    23    23    36    1
    24    36    37    1
    25    37    38    1
    26    38    39    1
    27    38    40    1
    28    23    26    1
    29    26    27   ar
    30    27    28   ar
    31    28    29   ar
    32    29    30   ar
    33    30    31   ar
    34    31    32   ar
    35    32    33   ar
    36    33    34   ar
    37    34    35   ar
    38    11     2   ar
    39    22    17   ar
    40    35    26   ar
    41     9     4   ar
    42    35    30   ar
    43    13    14    1
    44    24    25    1
@<TRIPOS>MOLECULE
*****
 40 44 0 0 0
SMALL
GASTEIGER

@<TRIPOS>ATOM
      1 C         141.9007  141.3481  162.3046 C.3     1  UNL1        0.0776
      2 C         143.2770  142.2110  164.3322 C.ar    1  UNL1        0.2211
      3 N         143.4401  142.3813  165.8135 N.ar    1  UNL1       -0.2119
      4 C         142.3900  141.8589  166.7487 C.ar    1  UNL1        0.0843
      5 C         142.5531  142.0292  168.2300 C.ar    1  UNL1        0.0190
      6 C         141.5030  141.5069  169.1651 C.ar    1  UNL1       -0.0003
      7 C         140.2898  140.8143  168.6188 C.ar    1  UNL1        0.0070
      8 C         140.1267  140.6440  167.1375 C.ar    1  UNL1       -0.0004
      9 C         141.1768  141.1663  166.2025 C.ar    1  UNL1        0.0174
     10 C         141.0137  140.9960  164.7210 C.ar    1  UNL1        0.0022
     11 C         142.0638  141.5183  163.7860 C.ar    1  UNL1        0.0373
     12 C         139.2397  140.2919  169.5540 C.3     1  UNL1        0.1636
     13 O         139.6368  139.7126  170.8794 O.3     1  UNL1       -0.3772
     14 H         140.1464  138.8996  170.7372 H       1  UNL1        0.2109
     15 C         145.5423  141.9067  163.0969 C.3     1  UNL1        0.2542
     16 O         144.3272  142.7333  163.3970 O.3     1  UNL1       -0.4563
     17 C         142.3169  140.0659  161.6467 C.ar    1  UNL1       -0.0157
     18 C         141.8543  139.7525  160.2547 C.ar    1  UNL1       -0.0039
     19 C         142.2705  138.4703  159.5969 C.ar    1  UNL1       -0.0003
     20 C         143.1494  137.5015  160.3310 C.ar    1  UNL1       -0.0000
     21 C         143.6121  137.8149  161.7231 C.ar    1  UNL1       -0.0003
     22 C         143.1959  139.0971  162.3809 C.ar    1  UNL1       -0.0039
     23 C         141.3214  142.4599  161.4811 C.3     1  UNL1        0.1158
     24 O         142.6843  142.7646  160.9338 O.3     1  UNL1       -0.3820
     25 H         142.8791  142.1634  160.1979 H       1  UNL1        0.2107
     26 C         139.9585  142.1552  162.0284 C.ar    1  UNL1        0.0024
     27 C         139.1826  140.9851  161.5003 C.ar    1  UNL1       -0.0020
     28 C         137.8197  140.6804  162.0476 C.ar    1  UNL1       -0.0002
     29 C         137.2327  141.5458  163.1231 C.ar    1  UNL1       -0.0000
     30 C         138.0085  142.7158  163.6512 C.ar    1  UNL1       -0.0002
     31 C         137.4215  143.5812  164.7266 C.ar    1  UNL1       -0.0000
     32 C         138.1975  144.7513  165.2548 C.ar    1  UNL1       -0.0000
     33 C         139.5604  145.0560  164.7074 C.ar    1  UNL1       -0.0000
     34 C         140.1474  144.1906  163.6320 C.ar    1  UNL1       -0.0002
     35 C         139.3715  143.0206  163.1039 C.ar    1  UNL1       -0.0018
     36 C         140.7422  143.5718  160.6576 C.3     1  UNL1        0.0491
     37 C         141.6496  144.4965  159.9017 C.3     1  UNL1        0.0750
     38 N         141.6784  144.4592  158.4024 N.3     1  UNL1       -0.2702
     39 C         141.2745  143.2109  157.6754 C.3     1  UNL1        0.0897
     40 C         142.1112  145.6701  157.6302 C.3     1  UNL1        0.0897
@<TRIPOS>BOND
     1    15    16    1
     2    16     2    1
     3     2     3   ar
     4     3     4   ar
     5     4     5   ar
     6     5     6   ar
     7     6     7   ar
     8     7    12    1
     9    12    13    1
    10     7     8   ar
    11     8     9   ar
    12     9    10   ar
    13    10    11   ar
    14    11     1    1
    15     1    17    1
    16    17    18   ar
    17    18    19   ar
    18    19    20   ar
    19    20    21   ar
    20    21    22   ar
    21     1    23    1
    22    23    24    1
    23    23    36    1
    24    36    37    1
    25    37    38    1
    26    38    39    1
    27    38    40    1
    28    23    26    1
    29    26    27   ar
    30    27    28   ar
    31    28    29   ar
    32    29    30   ar
    33    30    31   ar
    34    31    32   ar
    35    32    33   ar
    36    33    34   ar
    37    34    35   ar
    38    11     2   ar
    39    22    17   ar
    40    35    26   ar
    41     9     4   ar
    42    35    30   ar
    43    13    14    1
    44    24    25    1
@<TRIPOS>MOLECULE
*****
 40 44 0 0 0
SMALL
GASTEIGER

@<TRIPOS>ATOM
      1 C         141.6832  141.9493  164.2314 C.3     1  UNL1        0.0776
      2 C         143.5660  143.0072  162.7870 C.ar    1  UNL1        0.2211
      3 N         144.3377  143.0701  161.5023 N.ar    1  UNL1       -0.2119
      4 C         143.9984  142.1378  160.3772 C.ar    1  UNL1        0.0843
      5 C         144.7701  142.2007  159.0925 C.ar    1  UNL1        0.0190
      6 C         144.4308  141.2684  157.9674 C.ar    1  UNL1       -0.0003
      7 C         143.3197  140.2734  158.1271 C.ar    1  UNL1        0.0070
      8 C         142.5480  140.2105  159.4117 C.ar    1  UNL1       -0.0004
      9 C         142.8873  141.1428  160.5368 C.ar    1  UNL1        0.0174
     10 C         142.1156  141.0799  161.8216 C.ar    1  UNL1        0.0022
     11 C         142.4549  142.0122  162.9466 C.ar    1  UNL1        0.0373
     12 C         142.9804  139.3411  157.0019 C.3     1  UNL1        0.1636
     13 O         143.3289  137.8857  157.1028 O.3     1  UNL1       -0.3772
     14 H         144.2935  137.7841  157.1125 H       1  UNL1        0.2109
     15 C         143.3722  145.3415  163.9111 C.3     1  UNL1        0.2542
     16 O         143.9053  143.9395  163.9121 O.3     1  UNL1       -0.4563
     17 C         140.3186  142.5660  164.3175 C.ar    1  UNL1       -0.0157
     18 C         140.0853  143.7499  165.2085 C.ar    1  UNL1       -0.0039
     19 C         138.7207  144.3666  165.2945 C.ar    1  UNL1       -0.0003
     20 C         137.5892  143.7993  164.4896 C.ar    1  UNL1       -0.0000
     21 C         137.8224  142.6153  163.5986 C.ar    1  UNL1       -0.0003
     22 C         139.1870  141.9987  163.5125 C.ar    1  UNL1       -0.0039
     23 C         142.2762  141.2699  165.4300 C.3     1  UNL1        0.1158
     24 O         142.7467  142.5962  165.9491 O.3     1  UNL1       -0.3820
     25 H         142.0189  143.0383  166.4135 H       1  UNL1        0.2107
     26 C         141.8056  139.9436  164.9110 C.ar    1  UNL1        0.0024
     27 C         142.6218  139.2044  163.8924 C.ar    1  UNL1       -0.0020
     28 C         142.1513  137.8781  163.3734 C.ar    1  UNL1       -0.0002
     29 C         140.8645  137.2909  163.8729 C.ar    1  UNL1       -0.0000
     30 C         140.0483  138.0301  164.8914 C.ar    1  UNL1       -0.0002
     31 C         138.7616  137.4429  165.3909 C.ar    1  UNL1       -0.0000
     32 C         137.9454  138.1821  166.4095 C.ar    1  UNL1       -0.0000
     33 C         138.4159  139.5084  166.9285 C.ar    1  UNL1       -0.0000
     34 C         139.7027  140.0956  166.4290 C.ar    1  UNL1       -0.0002
     35 C         140.5189  139.3564  165.4105 C.ar    1  UNL1       -0.0018
     36 C         142.8691  140.5905  166.6286 C.3     1  UNL1        0.0491
     37 C         142.8571  141.2769  167.9623 C.3     1  UNL1        0.0750
     38 N         142.0389  140.7157  169.0873 N.3     1  UNL1       -0.2702
     39 C         142.3161  139.3332  169.5991 C.3     1  UNL1        0.0897
     40 C         140.9437  141.5369  169.7005 C.3     1  UNL1        0.0897
@<TRIPOS>BOND
     1    15    16    1
     2    16     2    1
     3     2     3   ar
     4     3     4   ar
     5     4     5   ar
     6     5     6   ar
     7     6     7   ar
     8     7    12    1
     9    12    13    1
    10     7     8   ar
    11     8     9   ar
    12     9    10   ar
    13    10    11   ar
    14    11     1    1
    15     1    17    1
    16    17    18   ar
    17    18    19   ar
    18    19    20   ar
    19    20    21   ar
    20    21    22   ar
    21     1    23    1
    22    23    24    1
    23    23    36    1
    24    36    37    1
    25    37    38    1
    26    38    39    1
    27    38    40    1
    28    23    26    1
    29    26    27   ar
    30    27    28   ar
    31    28    29   ar
    32    29    30   ar
    33    30    31   ar
    34    31    32   ar
    35    32    33   ar
    36    33    34   ar
    37    34    35   ar
    38    11     2   ar
    39    22    17   ar
    40    35    26   ar
    41     9     4   ar
    42    35    30   ar
    43    13    14    1
    44    24    25    1
@<TRIPOS>MOLECULE
*****
 40 44 0 0 0
SMALL
GASTEIGER

@<TRIPOS>ATOM
      1 C         141.2527  142.6054  163.3464 C.3     1  UNL1        0.0776
      2 C         141.6228  144.3078  161.4189 C.ar    1  UNL1        0.2211
      3 N         142.0696  144.6080  160.0189 N.ar    1  UNL1       -0.2119
      4 C         142.5933  143.5061  159.1461 C.ar    1  UNL1        0.0843
      5 C         143.0401  143.8064  157.7461 C.ar    1  UNL1        0.0190
      6 C         143.5637  142.7045  156.8734 C.ar    1  UNL1       -0.0003
      7 C         143.6405  141.3024  157.4008 C.ar    1  UNL1        0.0070
      8 C         143.1937  141.0021  158.8008 C.ar    1  UNL1       -0.0004
      9 C         142.6701  142.1040  159.6735 C.ar    1  UNL1        0.0174
     10 C         142.2232  141.8038  161.0736 C.ar    1  UNL1        0.0022
     11 C         141.6995  142.9056  161.9463 C.ar    1  UNL1        0.0373
     12 C         144.1642  140.2005  156.5280 C.3     1  UNL1        0.1636
     13 O         145.6386  139.9328  156.4615 O.3     1  UNL1       -0.3772
     14 H         146.0866  140.6900  156.0532 H       1  UNL1        0.2109
     15 C         139.8977  146.1991  161.8632 C.3     1  UNL1        0.2542
     16 O         141.0991  145.4097  162.2917 O.3     1  UNL1       -0.4563
     17 C         139.9751  143.1932  163.8681 C.ar    1  UNL1       -0.0157
     18 C         138.6733  142.8766  163.1935 C.ar    1  UNL1       -0.0039
     19 C         137.3957  143.4644  163.7153 C.ar    1  UNL1       -0.0003
     20 C         137.4199  144.3688  164.9117 C.ar    1  UNL1       -0.0000
     21 C         138.7217  144.6855  165.5864 C.ar    1  UNL1       -0.0003
     22 C         139.9993  144.0977  165.0646 C.ar    1  UNL1       -0.0039
     23 C         142.0834  141.7174  164.2246 C.3     1  UNL1        0.1158
     24 O         143.1557  142.7652  164.2697 O.3     1  UNL1       -0.3820
     25 H         142.9351  143.4248  164.9458 H       1  UNL1        0.2107
     26 C         141.0110  140.6696  164.1795 C.ar    1  UNL1        0.0024
     27 C         140.7058  139.9636  162.8916 C.ar    1  UNL1       -0.0020
     28 C         139.6334  138.9159  162.8466 C.ar    1  UNL1       -0.0002
     29 C         138.8662  138.5740  164.0893 C.ar    1  UNL1       -0.0000
     30 C         139.1713  139.2799  165.3771 C.ar    1  UNL1       -0.0002
     31 C         138.4040  138.9380  166.6199 C.ar    1  UNL1       -0.0000
     32 C         138.7092  139.6440  167.9077 C.ar    1  UNL1       -0.0000
     33 C         139.7815  140.6918  167.9528 C.ar    1  UNL1       -0.0000
     34 C         140.5488  141.0336  166.7101 C.ar    1  UNL1       -0.0002
     35 C         140.2437  140.3277  165.4223 C.ar    1  UNL1       -0.0018
     36 C         142.9141  140.8294  165.1029 C.3     1  UNL1        0.0491
     37 C         144.3319  140.5165  164.7264 C.3     1  UNL1        0.0750
     38 N         144.7284  140.4570  163.2809 N.3     1  UNL1       -0.2702
     39 C         144.3313  139.2784  162.4422 C.3     1  UNL1        0.0897
     40 C         145.5218  141.5760  162.6741 C.3     1  UNL1        0.0897
@<TRIPOS>BOND
     1    15    16    1
     2    16     2    1
     3     2     3   ar
     4     3     4   ar
     5     4     5   ar
     6     5     6   ar
     7     6     7   ar
     8     7    12    1
     9    12    13    1
    10     7     8   ar
    11     8     9   ar
    12     9    10   ar
    13    10    11   ar
    14    11     1    1
    15     1    17    1
    16    17    18   ar
    17    18    19   ar
    18    19    20   ar
    19    20    21   ar
    20    21    22   ar
    21     1    23    1
    22    23    24    1
    23    23    36    1
    24    36    37    1
    25    37    38    1
    26    38    39    1
    27    38    40    1
    28    23    26    1
    29    26    27   ar
    30    27    28   ar
    31    28    29   ar
    32    29    30   ar
    33    30    31   ar
    34    31    32   ar
    35    32    33   ar
    36    33    34   ar
    37    34    35   ar
    38    11     2   ar
    39    22    17   ar
    40    35    26   ar
    41     9     4   ar
    42    35    30   ar
    43    13    14    1
    44    24    25    1
