@<TRIPOS>MOLECULE
*****
 33 36 0 0 0
SMALL
GASTEIGER

@<TRIPOS>ATOM
      1 N         142.1346  143.2217  165.1228 N.pl3   1  UNL1       -0.2825
      2 H         142.0895  144.1559  165.4305 H       1  UNL1        0.1551
      3 C         139.6511  140.7223  169.1239 C.ar    1  UNL1        0.1776
      4 N         138.6507  139.6062  169.0658 N.ar    1  UNL1       -0.1626
      5 N         138.4250  139.2607  167.6237 N.ar    1  UNL1       -0.2490
      6 C         137.5008  138.1990  167.1056 C.3     1  UNL1        0.1537
      7 C         139.2859  140.1634  166.7906 C.ar    1  UNL1        0.0757
      8 C         139.4777  140.2795  165.3074 C.ar    1  UNL1       -0.0033
      9 C         138.7200  139.3761  164.3802 C.3     1  UNL1        0.0326
     10 C         140.4273  141.2989  164.7516 C.ar    1  UNL1        0.0119
     11 C         141.1850  142.2023  165.6788 C.ar    1  UNL1        0.0503
     12 C         140.9932  142.0862  167.1619 C.ar    1  UNL1        0.0179
     13 C         140.0437  141.0667  167.7178 C.ar    1  UNL1        0.0440
     14 C         140.1681  141.3789  170.3696 C.2     1  UNL1        0.3610
     15 O         139.4498  142.5622  170.9473 O.2     1  UNL1       -0.2431
     16 C         142.3374  139.9515  170.2846 C.3     1  UNL1        0.2560
     17 O         141.4036  140.8521  171.0376 O.3     1  UNL1       -0.4402
     18 C         143.1529  142.8180  164.0982 C.ar    1  UNL1        0.2207
     19 N         144.4130  142.1255  164.5254 N.ar    1  UNL1       -0.2120
     20 C         145.4314  141.7218  163.5006 C.ar    1  UNL1        0.1034
     21 C         145.1895  142.0105  162.0487 C.ar    1  UNL1        0.0415
     22 C         143.9294  142.7030  161.6215 C.ar    1  UNL1        0.1050
     23 N         142.9111  143.1067  162.6461 N.ar    1  UNL1       -0.2120
     24 C         143.6876  142.9917  160.1696 C.ar    1  UNL1        0.1198
     25 C         144.3675  142.3221  159.0123 C.ar    1  UNL1        0.0381
     26 C         143.8235  142.9173  157.7474 C.ar    1  UNL1        0.0734
     27 N         142.8074  143.9549  158.1231 N.ar    1  UNL1       -0.2515
     28 C         142.0145  144.7983  157.1692 C.3     1  UNL1        0.1534
     29 N         142.7234  144.0008  159.6200 N.ar    1  UNL1       -0.1680
     30 C         144.2251  142.5411  156.3520 C.3     1  UNL1        0.1184
     31 N         145.2208  141.4417  156.1288 N.3     1  UNL1       -0.2652
     32 C         146.6789  141.7665  155.9928 C.3     1  UNL1        0.0900
     33 C         144.7584  140.0173  156.0416 C.3     1  UNL1        0.0900
@<TRIPOS>BOND
     1    16    17    1
     2    17    14    1
     3    14    15    2
     4    14     3    1
     5     3     4   ar
     6     4     5   ar
     7     5     6    1
     8     5     7   ar
     9     7     8   ar
    10     8     9    1
    11     8    10   ar
    12    10    11   ar
    13    11     1    1
    14     1    18    1
    15    18    19   ar
    16    19    20   ar
    17    20    21   ar
    18    21    22   ar
    19    22    24    1
    20    24    25   ar
    21    25    26   ar
    22    26    30    1
    23    30    31    1
    24    31    32    1
    25    31    33    1
    26    26    27   ar
    27    27    28    1
    28    27    29   ar
    29    22    23   ar
    30    11    12   ar
    31    12    13   ar
    32    13     3   ar
    33    13     7   ar
    34    23    18   ar
    35    29    24   ar
    36     1     2    1
@<TRIPOS>MOLECULE
*****
 33 36 0 0 0
SMALL
GASTEIGER

@<TRIPOS>ATOM
      1 N         137.4187  139.7171  161.8300 N.pl3   1  UNL1       -0.2825
      2 H         136.4529  139.5352  161.8878 H       1  UNL1        0.1551
      3 C         139.7464  144.1972  160.1169 C.ar    1  UNL1        0.1776
      4 N         140.0661  144.6199  158.7136 N.ar    1  UNL1       -0.1626
      5 N         139.6093  143.5326  157.7867 N.ar    1  UNL1       -0.2490
      6 C         139.7328  143.5388  156.2918 C.3     1  UNL1        0.1537
      7 C         139.0074  142.4380  158.6170 C.ar    1  UNL1        0.0757
      8 C         138.3931  141.1203  158.2479 C.ar    1  UNL1       -0.0033
      9 C         138.3084  140.7095  156.8077 C.3     1  UNL1        0.0326
     10 C         137.8636  140.2134  159.3188 C.ar    1  UNL1        0.0119
     11 C         137.9483  140.6241  160.7590 C.ar    1  UNL1        0.0503
     12 C         138.5626  141.9418  161.1282 C.ar    1  UNL1        0.0179
     13 C         139.0921  142.8487  160.0572 C.ar    1  UNL1        0.0440
     14 C         140.0311  144.9847  161.3614 C.2     1  UNL1        0.3610
     15 O         139.3925  146.3270  161.5620 O.2     1  UNL1       -0.2431
     16 C         141.6898  145.3581  163.3259 C.3     1  UNL1        0.2560
     17 O         140.9544  144.4299  162.4053 O.3     1  UNL1       -0.4402
     18 C         138.3606  139.0874  162.8129 C.ar    1  UNL1        0.2207
     19 N         139.1178  137.8481  162.4379 N.ar    1  UNL1       -0.2120
     20 C         140.0598  137.2183  163.4209 C.ar    1  UNL1        0.1034
     21 C         140.2445  137.8280  164.7789 C.ar    1  UNL1        0.0415
     22 C         139.4874  139.0673  165.1539 C.ar    1  UNL1        0.1050
     23 N         138.5454  139.6971  164.1710 N.ar    1  UNL1       -0.2120
     24 C         139.6721  139.6770  166.5119 C.ar    1  UNL1        0.1198
     25 C         140.7445  140.6502  166.9030 C.ar    1  UNL1        0.0381
     26 C         140.5521  140.9952  168.3500 C.ar    1  UNL1        0.0734
     27 N         139.3607  140.2351  168.8533 N.ar    1  UNL1       -0.2515
     28 C         138.8100  140.2816  170.2477 C.3     1  UNL1        0.1534
     29 N         138.8169  139.4205  167.7172 N.ar    1  UNL1       -0.1680
     30 C         141.4017  141.9351  169.1529 C.3     1  UNL1        0.1184
     31 N         142.6595  141.4397  169.8030 N.3     1  UNL1       -0.2652
     32 C         142.7142  140.0522  170.3703 C.3     1  UNL1        0.0900
     33 C         143.8625  142.3319  169.8859 C.3     1  UNL1        0.0900
@<TRIPOS>BOND
     1    16    17    1
     2    17    14    1
     3    14    15    2
     4    14     3    1
     5     3     4   ar
     6     4     5   ar
     7     5     6    1
     8     5     7   ar
     9     7     8   ar
    10     8     9    1
    11     8    10   ar
    12    10    11   ar
    13    11     1    1
    14     1    18    1
    15    18    19   ar
    16    19    20   ar
    17    20    21   ar
    18    21    22   ar
    19    22    24    1
    20    24    25   ar
    21    25    26   ar
    22    26    30    1
    23    30    31    1
    24    31    32    1
    25    31    33    1
    26    26    27   ar
    27    27    28    1
    28    27    29   ar
    29    22    23   ar
    30    11    12   ar
    31    12    13   ar
    32    13     3   ar
    33    13     7   ar
    34    23    18   ar
    35    29    24   ar
    36     1     2    1
@<TRIPOS>MOLECULE
*****
 33 36 0 0 0
SMALL
GASTEIGER

@<TRIPOS>ATOM
      1 N         143.3001  141.2139  165.5805 N.pl3   1  UNL1       -0.2825
      2 H         144.1599  140.7774  165.7790 H       1  UNL1        0.1551
      3 C         139.4744  140.5491  169.2338 C.ar    1  UNL1        0.1776
      4 N         138.2477  139.6881  169.1725 N.ar    1  UNL1       -0.1626
      5 N         138.2399  138.9861  167.8469 N.ar    1  UNL1       -0.2490
      6 C         137.1938  138.0256  167.3640 C.3     1  UNL1        0.1537
      7 C         139.4618  139.4133  167.0889 C.ar    1  UNL1        0.0757
      8 C         139.9782  139.0475  165.7290 C.ar    1  UNL1       -0.0033
      9 C         139.2152  138.0816  164.8718 C.3     1  UNL1        0.0326
     10 C         141.2576  139.6477  165.2262 C.ar    1  UNL1        0.0119
     11 C         142.0206  140.6137  166.0834 C.ar    1  UNL1        0.0503
     12 C         141.5042  140.9795  167.4433 C.ar    1  UNL1        0.0179
     13 C         140.2248  140.3793  167.9461 C.ar    1  UNL1        0.0440
     14 C         139.8797  141.4260  170.3813 C.2     1  UNL1        0.3610
     15 O         140.5991  140.8366  171.5580 O.2     1  UNL1       -0.2431
     16 C         140.5776  143.8661  169.8253 C.3     1  UNL1        0.2560
     17 O         139.5654  142.8925  170.3521 O.3     1  UNL1       -0.4402
     18 C         143.2694  142.4791  164.7754 C.ar    1  UNL1        0.2207
     19 N         144.0803  143.6641  165.2094 N.ar    1  UNL1       -0.2120
     20 C         144.0496  144.9294  164.4042 C.ar    1  UNL1        0.1034
     21 C         143.2081  145.0096  163.1651 C.ar    1  UNL1        0.0415
     22 C         142.3973  143.8246  162.7311 C.ar    1  UNL1        0.1050
     23 N         142.4279  142.5594  163.5362 N.ar    1  UNL1       -0.2120
     24 C         141.5558  143.9048  161.4920 C.ar    1  UNL1        0.1198
     25 C         140.4465  142.9672  161.1173 C.ar    1  UNL1        0.0381
     26 C         139.8810  143.4196  159.8037 C.ar    1  UNL1        0.0734
     27 N         140.6408  144.6369  159.3666 N.ar    1  UNL1       -0.2515
     28 C         140.4066  145.4173  158.1071 C.3     1  UNL1        0.1534
     29 N         141.6759  144.9367  160.4100 N.ar    1  UNL1       -0.1680
     30 C         138.7536  142.7691  159.0582 C.3     1  UNL1        0.1184
     31 N         139.0432  141.8945  157.8744 N.3     1  UNL1       -0.2652
     32 C         138.8247  142.4162  156.4852 C.3     1  UNL1        0.0900
     33 C         139.5514  140.4982  158.0800 C.3     1  UNL1        0.0900
@<TRIPOS>BOND
     1    16    17    1
     2    17    14    1
     3    14    15    2
     4    14     3    1
     5     3     4   ar
     6     4     5   ar
     7     5     6    1
     8     5     7   ar
     9     7     8   ar
    10     8     9    1
    11     8    10   ar
    12    10    11   ar
    13    11     1    1
    14     1    18    1
    15    18    19   ar
    16    19    20   ar
    17    20    21   ar
    18    21    22   ar
    19    22    24    1
    20    24    25   ar
    21    25    26   ar
    22    26    30    1
    23    30    31    1
    24    31    32    1
    25    31    33    1
    26    26    27   ar
    27    27    28    1
    28    27    29   ar
    29    22    23   ar
    30    11    12   ar
    31    12    13   ar
    32    13     3   ar
    33    13     7   ar
    34    23    18   ar
    35    29    24   ar
    36     1     2    1
@<TRIPOS>MOLECULE
*****
 33 36 0 0 0
SMALL
GASTEIGER

@<TRIPOS>ATOM
      1 N         142.1000  143.1438  164.8388 N.pl3   1  UNL1       -0.2825
      2 H         142.9484  143.3592  165.2894 H       1  UNL1        0.1551
      3 C         139.7770  140.6892  168.9622 C.ar    1  UNL1        0.1776
      4 N         138.7591  139.5875  168.9556 N.ar    1  UNL1       -0.1626
      5 N         138.4591  139.2423  167.5270 N.ar    1  UNL1       -0.2490
      6 C         137.4957  138.1929  167.0572 C.3     1  UNL1        0.1537
      7 C         139.2916  140.1306  166.6508 C.ar    1  UNL1        0.0757
      8 C         139.4132  140.2407  165.1598 C.ar    1  UNL1       -0.0033
      9 C         138.5986  139.3464  164.2728 C.3     1  UNL1        0.0326
     10 C         140.3493  141.2451  164.5558 C.ar    1  UNL1        0.0119
     11 C         141.1638  142.1394  165.4429 C.ar    1  UNL1        0.0503
     12 C         141.0422  142.0293  166.9338 C.ar    1  UNL1        0.0179
     13 C         140.1061  141.0249  167.5378 C.ar    1  UNL1        0.0440
     14 C         140.3630  141.3409  170.1796 C.2     1  UNL1        0.3610
     15 O         139.6924  142.5379  170.7858 O.2     1  UNL1       -0.2431
     16 C         142.4931  139.8637  170.0042 C.3     1  UNL1        0.2560
     17 O         141.6196  140.7955  170.7908 O.3     1  UNL1       -0.4402
     18 C         141.7435  143.8201  163.5483 C.ar    1  UNL1        0.2207
     19 N         140.7678  144.9593  163.5430 N.ar    1  UNL1       -0.2120
     20 C         140.4113  145.6356  162.2524 C.ar    1  UNL1        0.1034
     21 C         141.0305  145.1725  160.9670 C.ar    1  UNL1        0.0415
     22 C         142.0062  144.0332  160.9723 C.ar    1  UNL1        0.1050
     23 N         142.3627  143.3570  162.2628 N.ar    1  UNL1       -0.2120
     24 C         142.6254  143.5701  159.6870 C.ar    1  UNL1        0.1198
     25 C         143.7029  142.5356  159.5498 C.ar    1  UNL1        0.0381
     26 C         144.0193  142.3864  158.0912 C.ar    1  UNL1        0.0734
     27 N         143.1372  143.3287  157.3268 N.ar    1  UNL1       -0.2515
     28 C         143.1198  143.5079  155.8377 C.3     1  UNL1        0.1534
     29 N         142.2758  144.0602  158.3131 N.ar    1  UNL1       -0.1680
     30 C         145.0386  141.4579  157.5006 C.3     1  UNL1        0.1184
     31 N         146.2804  142.0122  156.8675 N.3     1  UNL1       -0.2652
     32 C         147.1106  143.0220  157.6030 C.3     1  UNL1        0.0900
     33 C         146.6919  141.5567  155.4988 C.3     1  UNL1        0.0900
@<TRIPOS>BOND
     1    16    17    1
     2    17    14    1
     3    14    15    2
     4    14     3    1
     5     3     4   ar
     6     4     5   ar
     7     5     6    1
     8     5     7   ar
     9     7     8   ar
    10     8     9    1
    11     8    10   ar
    12    10    11   ar
    13    11     1    1
    14     1    18    1
    15    18    19   ar
    16    19    20   ar
    17    20    21   ar
    18    21    22   ar
    19    22    24    1
    20    24    25   ar
    21    25    26   ar
    22    26    30    1
    23    30    31    1
    24    31    32    1
    25    31    33    1
    26    26    27   ar
    27    27    28    1
    28    27    29   ar
    29    22    23   ar
    30    11    12   ar
    31    12    13   ar
    32    13     3   ar
    33    13     7   ar
    34    23    18   ar
    35    29    24   ar
    36     1     2    1
@<TRIPOS>MOLECULE
*****
 33 36 0 0 0
SMALL
GASTEIGER

@<TRIPOS>ATOM
      1 N         142.3188  139.8077  161.6944 N.pl3   1  UNL1       -0.2825
      2 H         143.1630  139.3396  161.5012 H       1  UNL1        0.1551
      3 C         139.9166  144.5570  161.3814 C.ar    1  UNL1        0.1776
      4 N         139.9924  145.5851  160.2918 N.ar    1  UNL1       -0.1626
      5 N         140.9025  145.0597  159.2214 N.ar    1  UNL1       -0.2490
      6 C         141.2627  145.7635  157.9467 C.3     1  UNL1        0.1537
      7 C         141.3891  143.7069  159.6495 C.ar    1  UNL1        0.0757
      8 C         142.3083  142.7179  158.9961 C.ar    1  UNL1       -0.0033
      9 C         142.9176  143.0287  157.6612 C.3     1  UNL1        0.0326
     10 C         142.6182  141.4182  159.6778 C.ar    1  UNL1        0.0119
     11 C         142.0088  141.1075  161.0127 C.ar    1  UNL1        0.0503
     12 C         141.0896  142.0965  161.6661 C.ar    1  UNL1        0.0179
     13 C         140.7798  143.3962  160.9845 C.ar    1  UNL1        0.0440
     14 C         139.1178  144.6698  162.6460 C.2     1  UNL1        0.3610
     15 O         137.6288  144.4926  162.6110 O.2     1  UNL1       -0.2431
     16 C         140.1110  143.8426  164.8999 C.3     1  UNL1        0.2560
     17 O         139.8081  144.9598  163.9459 O.3     1  UNL1       -0.4402
     18 C         141.3423  139.2212  162.6703 C.ar    1  UNL1        0.2207
     19 N         140.3460  138.1981  162.2114 N.ar    1  UNL1       -0.2120
     20 C         139.3696  137.6115  163.1874 C.ar    1  UNL1        0.1034
     21 C         139.3895  138.0481  164.6223 C.ar    1  UNL1        0.0415
     22 C         140.3858  139.0711  165.0813 C.ar    1  UNL1        0.1050
     23 N         141.3622  139.6577  164.1053 N.ar    1  UNL1       -0.2120
     24 C         140.4058  139.5077  166.5162 C.ar    1  UNL1        0.1198
     25 C         141.6256  139.8677  167.3114 C.ar    1  UNL1        0.0381
     26 C         141.1831  140.2434  168.6945 C.ar    1  UNL1        0.0734
     27 N         139.6897  140.1155  168.7541 N.ar    1  UNL1       -0.2515
     28 C         138.8280  140.3936  169.9501 C.3     1  UNL1        0.1534
     29 N         139.2093  139.6608  167.4078 N.ar    1  UNL1       -0.1680
     30 C         142.0770  140.6717  169.8204 C.3     1  UNL1        0.1184
     31 N         142.5597  142.0898  169.8969 N.3     1  UNL1       -0.2652
     32 C         144.0309  142.3822  169.8995 C.3     1  UNL1        0.0900
     33 C         141.5711  143.2156  169.9708 C.3     1  UNL1        0.0900
@<TRIPOS>BOND
     1    16    17    1
     2    17    14    1
     3    14    15    2
     4    14     3    1
     5     3     4   ar
     6     4     5   ar
     7     5     6    1
     8     5     7   ar
     9     7     8   ar
    10     8     9    1
    11     8    10   ar
    12    10    11   ar
    13    11     1    1
    14     1    18    1
    15    18    19   ar
    16    19    20   ar
    17    20    21   ar
    18    21    22   ar
    19    22    24    1
    20    24    25   ar
    21    25    26   ar
    22    26    30    1
    23    30    31    1
    24    31    32    1
    25    31    33    1
    26    26    27   ar
    27    27    28    1
    28    27    29   ar
    29    22    23   ar
    30    11    12   ar
    31    12    13   ar
    32    13     3   ar
    33    13     7   ar
    34    23    18   ar
    35    29    24   ar
    36     1     2    1
@<TRIPOS>MOLECULE
*****
 33 36 0 0 0
SMALL
GASTEIGER

@<TRIPOS>ATOM
      1 N         142.8859  142.3905  164.3913 N.pl3   1  UNL1       -0.2825
      2 H         143.7141  142.0305  163.9993 H       1  UNL1        0.1551
      3 C         139.6700  139.9162  167.8496 C.ar    1  UNL1        0.1776
      4 N         139.7698  139.8379  169.3443 N.ar    1  UNL1       -0.1626
      5 N         140.9863  140.6061  169.7684 N.ar    1  UNL1       -0.2490
      6 C         141.4666  140.7891  171.1776 C.3     1  UNL1        0.1537
      7 C         141.6384  141.1592  168.5359 C.ar    1  UNL1        0.0757
      8 C         142.8677  141.9960  168.3403 C.ar    1  UNL1       -0.0033
      9 C         143.6813  142.4224  169.5262 C.3     1  UNL1        0.0326
     10 C         143.2836  142.4064  166.9588 C.ar    1  UNL1        0.0119
     11 C         142.4700  141.9800  165.7729 C.ar    1  UNL1        0.0503
     12 C         141.2406  141.1432  165.9685 C.ar    1  UNL1        0.0179
     13 C         140.8248  140.7328  167.3501 C.ar    1  UNL1        0.0440
     14 C         138.6027  139.2882  167.0032 C.2     1  UNL1        0.3610
     15 O         137.5054  138.4938  167.6470 O.2     1  UNL1       -0.2431
     16 C         138.8137  138.2569  164.6278 C.3     1  UNL1        0.2560
     17 O         138.6328  139.4546  165.5127 O.3     1  UNL1       -0.4402
     18 C         142.0399  143.3493  163.6072 C.ar    1  UNL1        0.2207
     19 N         141.2006  144.3665  164.3219 N.ar    1  UNL1       -0.2120
     20 C         140.3546  145.3254  163.5377 C.ar    1  UNL1        0.1034
     21 C         140.3479  145.2670  162.0389 C.ar    1  UNL1        0.0415
     22 C         141.1872  144.2498  161.3242 C.ar    1  UNL1        0.1050
     23 N         142.0332  143.2909  162.1083 N.ar    1  UNL1       -0.2120
     24 C         141.1806  144.1914  159.8254 C.ar    1  UNL1        0.1198
     25 C         139.9631  144.1598  158.9496 C.ar    1  UNL1        0.0381
     26 C         140.4203  144.1032  157.5221 C.ar    1  UNL1        0.0734
     27 N         141.9204  144.0998  157.5157 N.ar    1  UNL1       -0.2515
     28 C         142.7967  144.0505  156.2992 C.3     1  UNL1        0.1534
     29 N         142.3902  144.1543  158.9391 N.ar    1  UNL1       -0.1680
     30 C         139.5333  144.0580  156.3134 C.3     1  UNL1        0.1184
     31 N         138.8884  145.3149  155.8089 N.3     1  UNL1       -0.2652
     32 C         137.6577  145.2357  154.9550 C.3     1  UNL1        0.0900
     33 C         139.4742  146.6509  156.1584 C.3     1  UNL1        0.0900
@<TRIPOS>BOND
     1    16    17    1
     2    17    14    1
     3    14    15    2
     4    14     3    1
     5     3     4   ar
     6     4     5   ar
     7     5     6    1
     8     5     7   ar
     9     7     8   ar
    10     8     9    1
    11     8    10   ar
    12    10    11   ar
    13    11     1    1
    14     1    18    1
    15    18    19   ar
    16    19    20   ar
    17    20    21   ar
    18    21    22   ar
    19    22    24    1
    20    24    25   ar
    21    25    26   ar
    22    26    30    1
    23    30    31    1
    24    31    32    1
    25    31    33    1
    26    26    27   ar
    27    27    28    1
    28    27    29   ar
    29    22    23   ar
    30    11    12   ar
    31    12    13   ar
    32    13     3   ar
    33    13     7   ar
    34    23    18   ar
    35    29    24   ar
    36     1     2    1
@<TRIPOS>MOLECULE
*****
 33 36 0 0 0
SMALL
GASTEIGER

@<TRIPOS>ATOM
      1 N         142.2615  145.0284  161.6317 N.pl3   1  UNL1       -0.2825
      2 H         142.2929  145.9796  161.8837 H       1  UNL1        0.1551
      3 C         138.4917  141.8696  159.5740 C.ar    1  UNL1        0.1776
      4 N         137.8864  141.8898  158.2017 N.ar    1  UNL1       -0.1626
      5 N         138.5314  143.0007  157.4271 N.ar    1  UNL1       -0.2490
      6 C         138.2260  143.3789  156.0080 C.3     1  UNL1        0.1537
      7 C         139.5352  143.6669  158.3206 C.ar    1  UNL1        0.0757
      8 C         140.4685  144.8198  158.0974 C.ar    1  UNL1       -0.0033
      9 C         140.4930  145.5189  156.7705 C.3     1  UNL1        0.0326
     10 C         141.3772  145.2736  159.2011 C.ar    1  UNL1        0.0119
     11 C         141.3527  144.5746  160.5280 C.ar    1  UNL1        0.0503
     12 C         140.4195  143.4217  160.7512 C.ar    1  UNL1        0.0179
     13 C         139.5107  142.9679  159.6475 C.ar    1  UNL1        0.0440
     14 C         138.1398  140.9181  160.6789 C.2     1  UNL1        0.3610
     15 O         137.7746  141.4452  162.0348 O.2     1  UNL1       -0.2431
     16 C         137.8361  138.4864  161.5421 C.3     1  UNL1        0.2560
     17 O         138.1531  139.4392  160.4278 O.3     1  UNL1       -0.4402
     18 C         143.1223  144.0331  162.3515 C.ar    1  UNL1        0.2207
     19 N         144.3355  143.4644  161.6772 N.ar    1  UNL1       -0.2120
     20 C         145.1964  142.4690  162.3971 C.ar    1  UNL1        0.1034
     21 C         144.8440  142.0423  163.7912 C.ar    1  UNL1        0.0415
     22 C         143.6308  142.6110  164.4656 C.ar    1  UNL1        0.1050
     23 N         142.7700  143.6064  163.7458 N.ar    1  UNL1       -0.2120
     24 C         143.2784  142.1843  165.8598 C.ar    1  UNL1        0.1198
     25 C         142.4423  140.9963  166.2335 C.ar    1  UNL1        0.0381
     26 C         142.3474  140.9485  167.7297 C.ar    1  UNL1        0.0734
     27 N         143.1249  142.1070  168.2807 N.ar    1  UNL1       -0.2515
     28 C         143.2969  142.4427  169.7325 C.3     1  UNL1        0.1534
     29 N         143.7003  142.8707  167.1250 N.ar    1  UNL1       -0.1680
     30 C         141.6054  139.9224  168.5337 C.3     1  UNL1        0.1184
     31 N         140.1245  140.0533  168.7331 N.3     1  UNL1       -0.2652
     32 C         139.5829  140.5051  170.0570 C.3     1  UNL1        0.0900
     33 C         139.1850  139.7323  167.6086 C.3     1  UNL1        0.0900
@<TRIPOS>BOND
     1    16    17    1
     2    17    14    1
     3    14    15    2
     4    14     3    1
     5     3     4   ar
     6     4     5   ar
     7     5     6    1
     8     5     7   ar
     9     7     8   ar
    10     8     9    1
    11     8    10   ar
    12    10    11   ar
    13    11     1    1
    14     1    18    1
    15    18    19   ar
    16    19    20   ar
    17    20    21   ar
    18    21    22   ar
    19    22    24    1
    20    24    25   ar
    21    25    26   ar
    22    26    30    1
    23    30    31    1
    24    31    32    1
    25    31    33    1
    26    26    27   ar
    27    27    28    1
    28    27    29   ar
    29    22    23   ar
    30    11    12   ar
    31    12    13   ar
    32    13     3   ar
    33    13     7   ar
    34    23    18   ar
    35    29    24   ar
    36     1     2    1
@<TRIPOS>MOLECULE
*****
 33 36 0 0 0
SMALL
GASTEIGER

@<TRIPOS>ATOM
      1 N         143.7898  138.5131  162.5611 N.pl3   1  UNL1       -0.2825
      2 H         144.5546  137.9266  162.7618 H       1  UNL1        0.1551
      3 C         138.9008  139.7393  164.2982 C.ar    1  UNL1        0.1776
      4 N         138.4316  139.9945  165.6999 N.ar    1  UNL1       -0.1626
      5 N         139.6096  139.8479  166.6169 N.ar    1  UNL1       -0.2490
      6 C         139.5933  140.0174  168.1072 C.3     1  UNL1        0.1537
      7 C         140.8068  139.5020  165.7819 C.ar    1  UNL1        0.0757
      8 C         142.2392  139.2395  166.1414 C.ar    1  UNL1       -0.0033
      9 C         142.6773  139.3066  167.5744 C.3     1  UNL1        0.0326
     10 C         143.2335  138.9099  165.0678 C.ar    1  UNL1        0.0119
     11 C         142.7954  138.8428  163.6348 C.ar    1  UNL1        0.0503
     12 C         141.3630  139.1053  163.2753 C.ar    1  UNL1        0.0179
     13 C         140.3687  139.4349  164.3489 C.ar    1  UNL1        0.0440
     14 C         138.0512  139.7811  163.0627 C.2     1  UNL1        0.3610
     15 O         137.9002  138.5534  162.2144 O.2     1  UNL1       -0.2431
     16 C         138.0084  142.0079  161.7249 C.3     1  UNL1        0.2560
     17 O         137.3525  141.0508  162.6756 O.3     1  UNL1       -0.4402
     18 C         143.6189  139.0771  161.1818 C.ar    1  UNL1        0.2207
     19 N         144.0173  140.4949  160.8966 N.ar    1  UNL1       -0.2120
     20 C         143.8464  141.0589  159.5171 C.ar    1  UNL1        0.1034
     21 C         143.2772  140.2052  158.4230 C.ar    1  UNL1        0.0415
     22 C         142.8788  138.7874  158.7083 C.ar    1  UNL1        0.1050
     23 N         143.0497  138.2234  160.0876 N.ar    1  UNL1       -0.2120
     24 C         142.3096  137.9337  157.6141 C.ar    1  UNL1        0.1198
     25 C         143.0495  136.8834  156.8400 C.ar    1  UNL1        0.0381
     26 C         142.0977  136.2810  155.8494 C.ar    1  UNL1        0.0734
     27 N         140.7695  136.9590  156.0115 N.ar    1  UNL1       -0.2515
     28 C         139.5283  136.6669  155.2215 C.3     1  UNL1        0.1534
     29 N         140.9005  137.9805  157.1021 N.ar    1  UNL1       -0.1680
     30 C         142.4179  135.1918  154.8691 C.3     1  UNL1        0.1184
     31 N         142.4905  133.7659  155.3293 N.3     1  UNL1       -0.2652
     32 C         143.7860  133.2072  155.8385 C.3     1  UNL1        0.0900
     33 C         141.2674  132.8988  155.2803 C.3     1  UNL1        0.0900
@<TRIPOS>BOND
     1    16    17    1
     2    17    14    1
     3    14    15    2
     4    14     3    1
     5     3     4   ar
     6     4     5   ar
     7     5     6    1
     8     5     7   ar
     9     7     8   ar
    10     8     9    1
    11     8    10   ar
    12    10    11   ar
    13    11     1    1
    14     1    18    1
    15    18    19   ar
    16    19    20   ar
    17    20    21   ar
    18    21    22   ar
    19    22    24    1
    20    24    25   ar
    21    25    26   ar
    22    26    30    1
    23    30    31    1
    24    31    32    1
    25    31    33    1
    26    26    27   ar
    27    27    28    1
    28    27    29   ar
    29    22    23   ar
    30    11    12   ar
    31    12    13   ar
    32    13     3   ar
    33    13     7   ar
    34    23    18   ar
    35    29    24   ar
    36     1     2    1
@<TRIPOS>MOLECULE
*****
 33 36 0 0 0
SMALL
GASTEIGER

@<TRIPOS>ATOM
      1 N         143.8678  136.9139  156.0519 N.pl3   1  UNL1       -0.2825
      2 H         144.7187  137.3428  155.8045 H       1  UNL1        0.1551
      3 C         144.0667  131.5935  156.3320 C.ar    1  UNL1        0.1776
      4 N         143.4713  130.5749  155.4057 N.ar    1  UNL1       -0.1626
      5 N         142.7590  131.3074  154.3075 N.ar    1  UNL1       -0.2490
      6 C         142.0211  130.6789  153.1628 C.3     1  UNL1        0.1537
      7 C         142.9141  132.7787  154.5551 C.ar    1  UNL1        0.0757
      8 C         142.4238  133.9802  153.8028 C.ar    1  UNL1       -0.0033
      9 C         141.6155  133.8033  152.5516 C.3     1  UNL1        0.0326
     10 C         142.7417  135.3585  154.3017 C.ar    1  UNL1        0.0119
     11 C         143.5499  135.5354  155.5529 C.ar    1  UNL1        0.0503
     12 C         144.0402  134.3339  156.3052 C.ar    1  UNL1        0.0179
     13 C         143.7223  132.9555  155.8063 C.ar    1  UNL1        0.0440
     14 C         144.8661  131.3015  157.5672 C.2     1  UNL1        0.3610
     15 O         145.6603  132.3925  158.2220 O.2     1  UNL1       -0.2431
     16 C         143.5878  129.2934  158.6083 C.3     1  UNL1        0.2560
     17 O         144.8713  129.9182  158.1476 O.3     1  UNL1       -0.4402
     18 C         142.8893  137.6387  156.9277 C.ar    1  UNL1        0.2207
     19 N         141.7659  138.4186  156.3117 N.ar    1  UNL1       -0.2120
     20 C         140.7874  139.1435  157.1876 C.ar    1  UNL1        0.1034
     21 C         140.9323  139.0883  158.6795 C.ar    1  UNL1        0.0415
     22 C         142.0558  138.3083  159.2956 C.ar    1  UNL1        0.1050
     23 N         143.0342  137.5835  158.4197 N.ar    1  UNL1       -0.2120
     24 C         142.2007  138.2531  160.7875 C.ar    1  UNL1        0.1198
     25 C         143.2867  138.9032  161.5925 C.ar    1  UNL1        0.0381
     26 C         143.0423  138.5901  163.0390 C.ar    1  UNL1        0.0734
     27 N         141.8052  137.7464  163.1279 N.ar    1  UNL1       -0.2515
     28 C         141.1953  137.2058  164.3872 C.3     1  UNL1        0.1534
     29 N         141.2851  137.5382  161.7364 N.ar    1  UNL1       -0.1680
     30 C         143.8867  139.0413  164.1937 C.3     1  UNL1        0.1184
     31 N         144.2183  140.4950  164.3574 N.3     1  UNL1       -0.2652
     32 C         143.2667  141.4051  165.0758 C.3     1  UNL1        0.0900
     33 C         145.5016  141.0386  163.8026 C.3     1  UNL1        0.0900
@<TRIPOS>BOND
     1    16    17    1
     2    17    14    1
     3    14    15    2
     4    14     3    1
     5     3     4   ar
     6     4     5   ar
     7     5     6    1
     8     5     7   ar
     9     7     8   ar
    10     8     9    1
    11     8    10   ar
    12    10    11   ar
    13    11     1    1
    14     1    18    1
    15    18    19   ar
    16    19    20   ar
    17    20    21   ar
    18    21    22   ar
    19    22    24    1
    20    24    25   ar
    21    25    26   ar
    22    26    30    1
    23    30    31    1
    24    31    32    1
    25    31    33    1
    26    26    27   ar
    27    27    28    1
    28    27    29   ar
    29    22    23   ar
    30    11    12   ar
    31    12    13   ar
    32    13     3   ar
    33    13     7   ar
    34    23    18   ar
    35    29    24   ar
    36     1     2    1
