@<TRIPOS>MOLECULE
*****
 37 42 0 0 0
SMALL
GASTEIGER

@<TRIPOS>ATOM
      1 C         142.1899  137.9678  164.0151 C.3     1  UNL1        0.0932
      2 C         142.9480  138.6743  165.0996 C.3     1  UNL1        0.0286
      3 C         144.0695  139.6056  164.7462 C.3     1  UNL1        0.0193
      4 C         144.4330  139.8303  163.3083 C.3     1  UNL1        0.0700
      5 C         143.6749  139.1238  162.2239 C.3     1  UNL1        0.0193
      6 C         142.5534  138.1925  162.5773 C.3     1  UNL1        0.0286
      7 C         143.8109  139.3107  163.4530 C.3     1  UNL1        0.1562
      8 O         142.7968  138.4687  163.7725 O.3     1  UNL1       -0.3572
      9 N         145.5545  140.7616  162.9550 N.3     1  UNL1       -0.2926
     10 H         145.6086  140.7844  161.9367 H       1  UNL1        0.1236
     11 C         145.5196  142.1876  163.4188 C.3     1  UNL1        0.1152
     12 C         144.2744  143.0044  163.2396 C.ar    1  UNL1        0.0765
     13 C         143.5085  143.4775  164.4395 C.ar    1  UNL1        0.0193
     14 C         142.2632  144.2942  164.2603 C.ar    1  UNL1        0.0411
     15 C         141.7837  144.6378  162.8811 C.ar    1  UNL1        0.1708
     16 C         142.5495  144.1648  161.6813 C.ar    1  UNL1        0.1682
     17 N         143.7948  143.3480  161.8605 N.ar    1  UNL1       -0.2304
     18 N         142.0699  144.5084  160.3022 N.am    1  UNL1       -0.2639
     19 C         140.8246  145.3251  160.1229 C.2     1  UNL1        0.2718
     20 O         140.3451  145.6688  158.7438 O.2     1  UNL1       -0.2707
     21 C         140.0588  145.7982  161.3228 C.3     1  UNL1        0.2898
     22 O         140.5383  145.4546  162.7019 O.3     1  UNL1       -0.4628
     23 H         142.5725  144.1979  159.5146 H       1  UNL1        0.1565
     24 C         141.0684  137.0365  164.3685 C.3     1  UNL1        0.0319
     25 C         139.7166  137.5874  164.7139 C.3     1  UNL1        0.0304
     26 C         139.5444  141.9896  165.6311 C.ar    1  UNL1        0.2250
     27 C         138.8523  142.9261  164.6857 C.ar    1  UNL1        0.0593
     28 C         138.2176  142.3953  163.4345 C.ar    1  UNL1        0.0254
     29 C         138.2750  140.9280  163.1288 C.ar    1  UNL1        0.0988
     30 N         137.6402  140.3971  161.8777 N.ar    1  UNL1       -0.2423
     31 C         137.6976  138.9298  161.5719 C.ar    1  UNL1        0.0986
     32 C         138.3898  137.9932  162.5173 C.ar    1  UNL1        0.0179
     33 C         139.0245  138.5240  163.7685 C.ar    1  UNL1       -0.0013
     34 C         138.9671  139.9914  164.0742 C.ar    1  UNL1        0.0980
     35 N         139.6018  140.5222  165.3253 N.ar    1  UNL1       -0.2105
     36 C         141.5489  142.0585  167.2824 C.3     1  UNL1        0.2542
     37 O         140.1791  142.5204  166.8822 O.3     1  UNL1       -0.4561
@<TRIPOS>BOND
     1    36    37    1
     2    37    26    1
     3    26    27   ar
     4    27    28   ar
     5    28    29   ar
     6    29    30   ar
     7    30    31   ar
     8    31    32   ar
     9    32    33   ar
    10    33    25    1
    11    25    24    1
    12    24     1    1
    13     1     2    1
    14     2     3    1
    15     3     4    1
    16     4     9    1
    17     9    11    1
    18    11    12    1
    19    12    13   ar
    20    13    14   ar
    21    14    15   ar
    22    15    16   ar
    23    16    17   ar
    24    16    18    1
    25    18    19   am
    26    19    20    2
    27    19    21    1
    28    21    22    1
    29     4     5    1
    30     5     6    1
    31     4     7    1
    32     7     8    1
    33    33    34   ar
    34    34    35   ar
    35    35    26   ar
    36    34    29   ar
    37     6     1    1
    38     8     1    1
    39    17    12   ar
    40    22    15    1
    41     9    10    1
    42    18    23    1
@<TRIPOS>MOLECULE
*****
 37 42 0 0 0
SMALL
GASTEIGER

@<TRIPOS>ATOM
      1 C         137.8121  142.8421  163.3728 C.3     1  UNL1        0.0932
      2 C         137.6967  141.6124  164.2240 C.3     1  UNL1        0.0286
      3 C         137.7091  140.2548  163.5861 C.3     1  UNL1        0.0193
      4 C         137.8368  140.1270  162.0970 C.3     1  UNL1        0.0700
      5 C         137.9522  141.3567  161.2458 C.3     1  UNL1        0.0193
      6 C         137.9398  142.7143  161.8838 C.3     1  UNL1        0.0286
      7 C         137.8347  140.8921  162.4010 C.3     1  UNL1        0.1562
      8 O         137.8236  142.1197  162.9778 O.3     1  UNL1       -0.3572
      9 N         137.8491  138.7694  161.4591 N.3     1  UNL1       -0.2926
     10 H         137.2968  138.8406  160.6046 H       1  UNL1        0.1236
     11 C         139.1524  138.1305  161.0804 C.3     1  UNL1        0.1152
     12 C         140.3509  138.2880  161.9686 C.ar    1  UNL1        0.0765
     13 C         140.4962  137.4310  163.1911 C.ar    1  UNL1        0.0193
     14 C         141.6947  137.5884  164.0792 C.ar    1  UNL1        0.0411
     15 C         142.7479  138.6028  163.7449 C.ar    1  UNL1        0.1708
     16 C         142.6026  139.4598  162.5224 C.ar    1  UNL1        0.1682
     17 N         141.4040  139.3023  161.6342 N.ar    1  UNL1       -0.2304
     18 N         143.6558  140.4741  162.1880 N.am    1  UNL1       -0.2639
     19 C         144.8543  140.6316  163.0761 C.2     1  UNL1        0.2718
     20 O         145.9075  141.6460  162.7418 O.2     1  UNL1       -0.2707
     21 C         144.9996  139.7746  164.2987 C.3     1  UNL1        0.2898
     22 O         143.9464  138.7602  164.6330 O.3     1  UNL1       -0.4628
     23 H         143.5604  141.0366  161.3857 H       1  UNL1        0.1565
     24 C         137.7997  144.1996  164.0107 C.3     1  UNL1        0.0319
     25 C         138.8040  144.5387  165.0721 C.3     1  UNL1        0.0304
     26 C         140.7356  141.3142  167.5462 C.ar    1  UNL1        0.2250
     27 C         142.1835  140.9792  167.3433 C.ar    1  UNL1        0.0593
     28 C         142.9876  141.7191  166.3156 C.ar    1  UNL1        0.0254
     29 C         142.3437  142.7939  165.4909 C.ar    1  UNL1        0.0988
     30 N         143.1478  143.5338  164.4633 N.ar    1  UNL1       -0.2423
     31 C         142.5040  144.6086  163.6386 C.ar    1  UNL1        0.0986
     32 C         141.0560  144.9436  163.8415 C.ar    1  UNL1        0.0179
     33 C         140.2519  144.2038  164.8692 C.ar    1  UNL1       -0.0013
     34 C         140.8958  143.1289  165.6939 C.ar    1  UNL1        0.0980
     35 N         140.0917  142.3890  166.7215 N.ar    1  UNL1       -0.2105
     36 C         139.6240  141.2195  169.8926 C.3     1  UNL1        0.2542
     37 O         139.9315  140.5743  168.5738 O.3     1  UNL1       -0.4561
@<TRIPOS>BOND
     1    36    37    1
     2    37    26    1
     3    26    27   ar
     4    27    28   ar
     5    28    29   ar
     6    29    30   ar
     7    30    31   ar
     8    31    32   ar
     9    32    33   ar
    10    33    25    1
    11    25    24    1
    12    24     1    1
    13     1     2    1
    14     2     3    1
    15     3     4    1
    16     4     9    1
    17     9    11    1
    18    11    12    1
    19    12    13   ar
    20    13    14   ar
    21    14    15   ar
    22    15    16   ar
    23    16    17   ar
    24    16    18    1
    25    18    19   am
    26    19    20    2
    27    19    21    1
    28    21    22    1
    29     4     5    1
    30     5     6    1
    31     4     7    1
    32     7     8    1
    33    33    34   ar
    34    34    35   ar
    35    35    26   ar
    36    34    29   ar
    37     6     1    1
    38     8     1    1
    39    17    12   ar
    40    22    15    1
    41     9    10    1
    42    18    23    1
@<TRIPOS>MOLECULE
*****
 37 42 0 0 0
SMALL
GASTEIGER

@<TRIPOS>ATOM
      1 C         141.8826  138.1763  164.2435 C.3     1  UNL1        0.0932
      2 C         141.9234  138.7407  162.8543 C.3     1  UNL1        0.0286
      3 C         143.1078  139.5441  162.4056 C.3     1  UNL1        0.0193
      4 C         144.2517  139.7833  163.3461 C.3     1  UNL1        0.0700
      5 C         144.2110  139.2190  164.7353 C.3     1  UNL1        0.0193
      6 C         143.0264  138.4155  165.1840 C.3     1  UNL1        0.0286
      7 C         143.6241  139.3368  163.6372 C.3     1  UNL1        0.1562
      8 O         142.5531  138.6103  164.0429 O.3     1  UNL1       -0.3572
      9 N         145.4362  140.5868  162.8974 N.3     1  UNL1       -0.2926
     10 H         145.4815  140.5026  161.8819 H       1  UNL1        0.1236
     11 C         145.5128  142.0510  163.2143 C.3     1  UNL1        0.1152
     12 C         144.2872  142.9082  163.1000 C.ar    1  UNL1        0.0765
     13 C         143.5986  143.4012  164.3381 C.ar    1  UNL1        0.0193
     14 C         142.3731  144.2584  164.2238 C.ar    1  UNL1        0.0411
     15 C         141.8361  144.6228  162.8714 C.ar    1  UNL1        0.1708
     16 C         142.5246  144.1299  161.6333 C.ar    1  UNL1        0.1682
     17 N         143.7503  143.2726  161.7476 N.ar    1  UNL1       -0.2304
     18 N         141.9876  144.4942  160.2810 N.am    1  UNL1       -0.2639
     19 C         140.7621  145.3514  160.1667 C.2     1  UNL1        0.2718
     20 O         140.2251  145.7158  158.8143 O.2     1  UNL1       -0.2707
     21 C         140.0735  145.8444  161.4048 C.3     1  UNL1        0.2898
     22 O         140.6104  145.4801  162.7572 O.3     1  UNL1       -0.4628
     23 H         142.4396  144.1707  159.4684 H       1  UNL1        0.1565
     24 C         140.6982  137.3729  164.6922 C.3     1  UNL1        0.0319
     25 C         139.5052  138.0624  165.2852 C.3     1  UNL1        0.0304
     26 C         137.8828  141.3368  162.6591 C.ar    1  UNL1        0.2250
     27 C         137.9842  142.7681  163.0960 C.ar    1  UNL1        0.0593
     28 C         138.6265  143.1080  164.4083 C.ar    1  UNL1        0.0254
     29 C         139.1673  142.0166  165.2836 C.ar    1  UNL1        0.0988
     30 N         139.8095  142.3565  166.5959 N.ar    1  UNL1       -0.2423
     31 C         140.3503  141.2651  167.4712 C.ar    1  UNL1        0.0986
     32 C         140.2489  139.8337  167.0343 C.ar    1  UNL1        0.0179
     33 C         139.6067  139.4937  165.7221 C.ar    1  UNL1       -0.0013
     34 C         139.0658  140.5853  164.8467 C.ar    1  UNL1        0.0980
     35 N         138.4236  140.2453  163.5345 N.ar    1  UNL1       -0.2105
     36 C         137.7051  139.7992  160.5725 C.3     1  UNL1        0.2542
     37 O         137.2405  140.9968  161.3469 O.3     1  UNL1       -0.4561
@<TRIPOS>BOND
     1    36    37    1
     2    37    26    1
     3    26    27   ar
     4    27    28   ar
     5    28    29   ar
     6    29    30   ar
     7    30    31   ar
     8    31    32   ar
     9    32    33   ar
    10    33    25    1
    11    25    24    1
    12    24     1    1
    13     1     2    1
    14     2     3    1
    15     3     4    1
    16     4     9    1
    17     9    11    1
    18    11    12    1
    19    12    13   ar
    20    13    14   ar
    21    14    15   ar
    22    15    16   ar
    23    16    17   ar
    24    16    18    1
    25    18    19   am
    26    19    20    2
    27    19    21    1
    28    21    22    1
    29     4     5    1
    30     5     6    1
    31     4     7    1
    32     7     8    1
    33    33    34   ar
    34    34    35   ar
    35    35    26   ar
    36    34    29   ar
    37     6     1    1
    38     8     1    1
    39    17    12   ar
    40    22    15    1
    41     9    10    1
    42    18    23    1
@<TRIPOS>MOLECULE
*****
 37 42 0 0 0
SMALL
GASTEIGER

@<TRIPOS>ATOM
      1 C         140.9882  144.9132  162.9025 C.3     1  UNL1        0.0932
      2 C         142.0630  144.9463  163.9482 C.3     1  UNL1        0.0286
      3 C         143.4249  144.3975  163.6416 C.3     1  UNL1        0.0193
      4 C         143.7120  143.8156  162.2892 C.3     1  UNL1        0.0700
      5 C         142.6371  143.7825  161.2434 C.3     1  UNL1        0.0193
      6 C         141.2752  144.3313  161.5501 C.3     1  UNL1        0.0286
      7 C         142.9505  144.1043  162.4106 C.3     1  UNL1        0.1562
      8 O         141.7190  144.6006  162.6878 O.3     1  UNL1       -0.3572
      9 N         145.0738  143.2668  161.9826 N.3     1  UNL1       -0.2926
     10 H         145.6740  143.5113  162.7703 H       1  UNL1        0.1236
     11 C         145.2534  141.7973  161.7412 C.3     1  UNL1        0.1152
     12 C         144.5050  140.8028  162.5783 C.ar    1  UNL1        0.0765
     13 C         145.1092  140.2884  163.8513 C.ar    1  UNL1        0.0193
     14 C         144.3608  139.2939  164.6884 C.ar    1  UNL1        0.0411
     15 C         143.0082  138.8137  164.2527 C.ar    1  UNL1        0.1708
     16 C         142.4040  139.3280  162.9798 C.ar    1  UNL1        0.1682
     17 N         143.1524  140.3226  162.1425 N.ar    1  UNL1       -0.2304
     18 N         141.0514  138.8479  162.5440 N.am    1  UNL1       -0.2639
     19 C         140.3030  137.8534  163.3811 C.2     1  UNL1        0.2718
     20 O         138.9504  137.3732  162.9453 O.2     1  UNL1       -0.2707
     21 C         140.9072  137.3390  164.6541 C.3     1  UNL1        0.2898
     22 O         142.2598  137.8191  165.0899 O.3     1  UNL1       -0.4628
     23 H         140.6548  139.1855  161.7085 H       1  UNL1        0.1565
     24 C         139.6263  145.4620  163.2091 C.3     1  UNL1        0.0319
     25 C         138.7858  144.8291  164.2783 C.3     1  UNL1        0.0304
     26 C         140.6600  142.1471  167.3676 C.ar    1  UNL1        0.2250
     27 C         140.3961  140.6708  167.3385 C.ar    1  UNL1        0.0593
     28 C         139.5075  140.0885  166.2795 C.ar    1  UNL1        0.0254
     29 C         138.8828  140.9824  165.2498 C.ar    1  UNL1        0.0988
     30 N         137.9943  140.4001  164.1908 N.ar    1  UNL1       -0.2423
     31 C         137.3695  141.2941  163.1610 C.ar    1  UNL1        0.0986
     32 C         137.6334  142.7705  163.1902 C.ar    1  UNL1        0.0179
     33 C         138.5220  143.3528  164.2491 C.ar    1  UNL1       -0.0013
     34 C         139.1467  142.4587  165.2789 C.ar    1  UNL1        0.0980
     35 N         140.0353  143.0410  166.3379 N.ar    1  UNL1       -0.2105
     36 C         142.9627  142.2492  168.5663 C.3     1  UNL1        0.2542
     37 O         141.5486  142.7294  168.4266 O.3     1  UNL1       -0.4561
@<TRIPOS>BOND
     1    36    37    1
     2    37    26    1
     3    26    27   ar
     4    27    28   ar
     5    28    29   ar
     6    29    30   ar
     7    30    31   ar
     8    31    32   ar
     9    32    33   ar
    10    33    25    1
    11    25    24    1
    12    24     1    1
    13     1     2    1
    14     2     3    1
    15     3     4    1
    16     4     9    1
    17     9    11    1
    18    11    12    1
    19    12    13   ar
    20    13    14   ar
    21    14    15   ar
    22    15    16   ar
    23    16    17   ar
    24    16    18    1
    25    18    19   am
    26    19    20    2
    27    19    21    1
    28    21    22    1
    29     4     5    1
    30     5     6    1
    31     4     7    1
    32     7     8    1
    33    33    34   ar
    34    34    35   ar
    35    35    26   ar
    36    34    29   ar
    37     6     1    1
    38     8     1    1
    39    17    12   ar
    40    22    15    1
    41     9    10    1
    42    18    23    1
@<TRIPOS>MOLECULE
*****
 37 42 0 0 0
SMALL
GASTEIGER

@<TRIPOS>ATOM
      1 C         139.4347  137.7714  164.4407 C.3     1  UNL1        0.0932
      2 C         140.8748  137.4551  164.7167 C.3     1  UNL1        0.0286
      3 C         141.8562  137.3788  163.5849 C.3     1  UNL1        0.0193
      4 C         141.3976  137.6189  162.1770 C.3     1  UNL1        0.0700
      5 C         139.9575  137.9352  161.9010 C.3     1  UNL1        0.0193
      6 C         138.9761  138.0115  163.0329 C.3     1  UNL1        0.0286
      7 C         140.8230  137.6715  162.7644 C.3     1  UNL1        0.1562
      8 O         139.9355  137.7405  163.7878 O.3     1  UNL1       -0.3572
      9 N         142.3790  137.5426  161.0452 N.3     1  UNL1       -0.2926
     10 H         141.9634  136.9395  160.3353 H       1  UNL1        0.1236
     11 C         142.8170  138.7956  160.3466 C.3     1  UNL1        0.1152
     12 C         143.1788  140.0124  161.1455 C.ar    1  UNL1        0.0765
     13 C         144.4750  140.0566  161.8993 C.ar    1  UNL1        0.0193
     14 C         144.8369  141.2734  162.6982 C.ar    1  UNL1        0.0411
     15 C         143.9027  142.4461  162.7435 C.ar    1  UNL1        0.1708
     16 C         142.6065  142.4020  161.9898 C.ar    1  UNL1        0.1682
     17 N         142.2446  141.1851  161.1908 N.ar    1  UNL1       -0.2304
     18 N         141.6723  143.5746  162.0351 N.am    1  UNL1       -0.2639
     19 C         142.0342  144.7914  162.8340 C.2     1  UNL1        0.2718
     20 O         141.0999  145.9641  162.8793 O.2     1  UNL1       -0.2707
     21 C         143.3304  144.8356  163.5878 C.3     1  UNL1        0.2898
     22 O         144.2646  143.6630  163.5425 O.3     1  UNL1       -0.4628
     23 H         140.8216  143.5456  161.5404 H       1  UNL1        0.1565
     24 C         138.4533  137.8477  165.5725 C.3     1  UNL1        0.0319
     25 C         138.1621  139.1666  166.2251 C.3     1  UNL1        0.0304
     26 C         142.2576  140.3405  167.6739 C.ar    1  UNL1        0.2250
     27 C         142.9053  141.5915  167.1587 C.ar    1  UNL1        0.0593
     28 C         142.1879  142.4512  166.1605 C.ar    1  UNL1        0.0254
     29 C         140.8227  142.0599  165.6776 C.ar    1  UNL1        0.0988
     30 N         140.1053  142.9196  164.6795 N.ar    1  UNL1       -0.2423
     31 C         138.7402  142.5283  164.1966 C.ar    1  UNL1        0.0986
     32 C         138.0924  141.2773  164.7118 C.ar    1  UNL1        0.0179
     33 C         138.8098  140.4176  165.7099 C.ar    1  UNL1       -0.0013
     34 C         140.1750  140.8089  166.1928 C.ar    1  UNL1        0.0980
     35 N         140.8925  139.9492  167.1909 N.ar    1  UNL1       -0.2105
     36 C         142.3153  139.1325  169.9733 C.3     1  UNL1        0.2542
     37 O         142.9750  139.4808  168.6720 O.3     1  UNL1       -0.4561
@<TRIPOS>BOND
     1    36    37    1
     2    37    26    1
     3    26    27   ar
     4    27    28   ar
     5    28    29   ar
     6    29    30   ar
     7    30    31   ar
     8    31    32   ar
     9    32    33   ar
    10    33    25    1
    11    25    24    1
    12    24     1    1
    13     1     2    1
    14     2     3    1
    15     3     4    1
    16     4     9    1
    17     9    11    1
    18    11    12    1
    19    12    13   ar
    20    13    14   ar
    21    14    15   ar
    22    15    16   ar
    23    16    17   ar
    24    16    18    1
    25    18    19   am
    26    19    20    2
    27    19    21    1
    28    21    22    1
    29     4     5    1
    30     5     6    1
    31     4     7    1
    32     7     8    1
    33    33    34   ar
    34    34    35   ar
    35    35    26   ar
    36    34    29   ar
    37     6     1    1
    38     8     1    1
    39    17    12   ar
    40    22    15    1
    41     9    10    1
    42    18    23    1
@<TRIPOS>MOLECULE
*****
 37 42 0 0 0
SMALL
GASTEIGER

@<TRIPOS>ATOM
      1 C         141.8273  138.1522  164.2759 C.3     1  UNL1        0.0932
      2 C         142.0011  138.5496  162.8400 C.3     1  UNL1        0.0286
      3 C         143.2231  139.3080  162.4143 C.3     1  UNL1        0.0193
      4 C         144.2715  139.6692  163.4246 C.3     1  UNL1        0.0700
      5 C         144.0977  139.2719  164.8605 C.3     1  UNL1        0.0193
      6 C         142.8755  138.5133  165.2862 C.3     1  UNL1        0.0286
      7 C         143.6189  139.2529  163.7053 C.3     1  UNL1        0.1562
      8 O         142.5139  138.5671  164.0902 O.3     1  UNL1       -0.3572
      9 N         145.4935  140.4277  162.9989 N.3     1  UNL1       -0.2926
     10 H         145.5757  140.3108  161.9890 H       1  UNL1        0.1236
     11 C         145.5972  141.8985  163.2744 C.3     1  UNL1        0.1152
     12 C         144.3830  142.7712  163.1559 C.ar    1  UNL1        0.0765
     13 C         143.6944  143.2701  164.3916 C.ar    1  UNL1        0.0193
     14 C         142.4802  144.1428  164.2731 C.ar    1  UNL1        0.0411
     15 C         141.9544  144.5165  162.9189 C.ar    1  UNL1        0.1708
     16 C         142.6430  144.0176  161.6832 C.ar    1  UNL1        0.1682
     17 N         143.8573  143.1449  161.8017 N.ar    1  UNL1       -0.2304
     18 N         142.1173  144.3914  160.3289 N.am    1  UNL1       -0.2639
     19 C         140.9030  145.2640  160.2104 C.2     1  UNL1        0.2718
     20 O         140.3773  145.6377  158.8562 O.2     1  UNL1       -0.2707
     21 C         140.2144  145.7630  161.4461 C.3     1  UNL1        0.2898
     22 O         140.7402  145.3892  162.8004 O.3     1  UNL1       -0.4628
     23 H         142.5692  144.0639  159.5179 H       1  UNL1        0.1565
     24 C         140.6052  137.3937  164.7016 C.3     1  UNL1        0.0319
     25 C         139.3823  138.1350  165.1545 C.3     1  UNL1        0.0304
     26 C         140.8182  140.9848  168.3273 C.ar    1  UNL1        0.2250
     27 C         140.7144  142.4651  168.1084 C.ar    1  UNL1        0.0593
     28 C         140.1320  142.9955  166.8319 C.ar    1  UNL1        0.0254
     29 C         139.6534  142.0456  165.7743 C.ar    1  UNL1        0.0988
     30 N         139.0710  142.5759  164.4977 N.ar    1  UNL1       -0.2423
     31 C         138.5924  141.6260  163.4402 C.ar    1  UNL1        0.0986
     32 C         138.6961  140.1457  163.6591 C.ar    1  UNL1        0.0179
     33 C         139.2785  139.6153  164.9356 C.ar    1  UNL1       -0.0013
     34 C         139.7572  140.5653  165.9932 C.ar    1  UNL1        0.0980
     35 N         140.3396  140.0349  167.2697 N.ar    1  UNL1       -0.2105
     36 C         142.8759  140.5571  169.8547 C.3     1  UNL1        0.2542
     37 O         141.4006  140.4544  169.6038 O.3     1  UNL1       -0.4561
@<TRIPOS>BOND
     1    36    37    1
     2    37    26    1
     3    26    27   ar
     4    27    28   ar
     5    28    29   ar
     6    29    30   ar
     7    30    31   ar
     8    31    32   ar
     9    32    33   ar
    10    33    25    1
    11    25    24    1
    12    24     1    1
    13     1     2    1
    14     2     3    1
    15     3     4    1
    16     4     9    1
    17     9    11    1
    18    11    12    1
    19    12    13   ar
    20    13    14   ar
    21    14    15   ar
    22    15    16   ar
    23    16    17   ar
    24    16    18    1
    25    18    19   am
    26    19    20    2
    27    19    21    1
    28    21    22    1
    29     4     5    1
    30     5     6    1
    31     4     7    1
    32     7     8    1
    33    33    34   ar
    34    34    35   ar
    35    35    26   ar
    36    34    29   ar
    37     6     1    1
    38     8     1    1
    39    17    12   ar
    40    22    15    1
    41     9    10    1
    42    18    23    1
@<TRIPOS>MOLECULE
*****
 37 42 0 0 0
SMALL
GASTEIGER

@<TRIPOS>ATOM
      1 C         143.9826  142.1974  163.9223 C.3     1  UNL1        0.0932
      2 C         142.8735  142.5241  164.8779 C.3     1  UNL1        0.0286
      3 C         142.0294  143.7444  164.6584 C.3     1  UNL1        0.0193
      4 C         142.2944  144.6382  163.4832 C.3     1  UNL1        0.0700
      5 C         143.4035  144.3115  162.5276 C.3     1  UNL1        0.0193
      6 C         144.2476  143.0911  162.7471 C.3     1  UNL1        0.0286
      7 C         142.7836  143.9806  163.5621 C.3     1  UNL1        0.1562
      8 O         143.5468  142.8771  163.7606 O.3     1  UNL1       -0.3572
      9 N         141.4503  145.8585  163.2637 N.3     1  UNL1       -0.2926
     10 H         142.0737  146.5902  162.9223 H       1  UNL1        0.1236
     11 C         140.2865  145.8055  162.3188 C.3     1  UNL1        0.1152
     12 C         139.5154  144.5301  162.1496 C.ar    1  UNL1        0.0765
     13 C         138.4425  144.1663  163.1328 C.ar    1  UNL1        0.0193
     14 C         137.6713  142.8909  162.9636 C.ar    1  UNL1        0.0411
     15 C         137.9730  141.9793  161.8113 C.ar    1  UNL1        0.1708
     16 C         139.0458  142.3430  160.8281 C.ar    1  UNL1        0.1682
     17 N         139.8171  143.6185  160.9973 N.ar    1  UNL1       -0.2304
     18 N         139.3475  141.4314  159.6757 N.am    1  UNL1       -0.2639
     19 C         138.5763  140.1560  159.5065 C.2     1  UNL1        0.2718
     20 O         138.8780  139.2444  158.3542 O.2     1  UNL1       -0.2707
     21 C         137.5034  139.7922  160.4897 C.3     1  UNL1        0.2898
     22 O         137.2018  140.7038  161.6421 O.3     1  UNL1       -0.4628
     23 H         140.0516  141.6702  159.0304 H       1  UNL1        0.1565
     24 C         144.8267  140.9771  164.1418 C.3     1  UNL1        0.0319
     25 C         144.1768  139.6621  164.4558 C.3     1  UNL1        0.0304
     26 C         139.8467  138.7406  165.2626 C.ar    1  UNL1        0.2250
     27 C         139.0215  138.0443  164.2214 C.ar    1  UNL1        0.0593
     28 C         139.6396  137.6551  162.9113 C.ar    1  UNL1        0.0254
     29 C         141.0829  137.9623  162.6423 C.ar    1  UNL1        0.0988
     30 N         141.7011  137.5731  161.3322 N.ar    1  UNL1       -0.2423
     31 C         143.1444  137.8803  161.0633 C.ar    1  UNL1        0.0986
     32 C         143.9697  138.5766  162.1045 C.ar    1  UNL1        0.0179
     33 C         143.3516  138.9658  163.4146 C.ar    1  UNL1       -0.0013
     34 C         141.9081  138.6586  163.6835 C.ar    1  UNL1        0.0980
     35 N         141.2900  139.0478  164.9937 N.ar    1  UNL1       -0.2105
     36 C         137.8198  138.7223  166.8878 C.3     1  UNL1        0.2542
     37 O         139.2285  139.1298  166.5728 O.3     1  UNL1       -0.4561
@<TRIPOS>BOND
     1    36    37    1
     2    37    26    1
     3    26    27   ar
     4    27    28   ar
     5    28    29   ar
     6    29    30   ar
     7    30    31   ar
     8    31    32   ar
     9    32    33   ar
    10    33    25    1
    11    25    24    1
    12    24     1    1
    13     1     2    1
    14     2     3    1
    15     3     4    1
    16     4     9    1
    17     9    11    1
    18    11    12    1
    19    12    13   ar
    20    13    14   ar
    21    14    15   ar
    22    15    16   ar
    23    16    17   ar
    24    16    18    1
    25    18    19   am
    26    19    20    2
    27    19    21    1
    28    21    22    1
    29     4     5    1
    30     5     6    1
    31     4     7    1
    32     7     8    1
    33    33    34   ar
    34    34    35   ar
    35    35    26   ar
    36    34    29   ar
    37     6     1    1
    38     8     1    1
    39    17    12   ar
    40    22    15    1
    41     9    10    1
    42    18    23    1
@<TRIPOS>MOLECULE
*****
 37 42 0 0 0
SMALL
GASTEIGER

@<TRIPOS>ATOM
      1 C         142.7562  144.6789  163.4043 C.3     1  UNL1        0.0932
      2 C         142.9296  144.0260  162.0650 C.3     1  UNL1        0.0286
      3 C         141.7316  143.7433  161.2078 C.3     1  UNL1        0.0193
      4 C         140.3602  144.1134  161.6899 C.3     1  UNL1        0.0700
      5 C         140.1869  144.7663  163.0292 C.3     1  UNL1        0.0193
      6 C         141.3849  145.0490  163.8864 C.3     1  UNL1        0.0286
      7 C         140.9866  144.2882  162.1949 C.3     1  UNL1        0.1562
      8 O         142.0698  144.5438  162.9701 O.3     1  UNL1       -0.3572
      9 N         139.1622  143.8307  160.8327 N.3     1  UNL1       -0.2926
     10 H         139.5015  143.3411  160.0047 H       1  UNL1        0.1236
     11 C         138.0237  143.0209  161.3785 C.3     1  UNL1        0.1152
     12 C         138.2912  141.7015  162.0399 C.ar    1  UNL1        0.0765
     13 C         138.9329  140.5897  161.2638 C.ar    1  UNL1        0.0193
     14 C         139.2004  139.2704  161.9252 C.ar    1  UNL1        0.0411
     15 C         138.8263  139.0626  163.3629 C.ar    1  UNL1        0.1708
     16 C         138.1846  140.1742  164.1390 C.ar    1  UNL1        0.1682
     17 N         137.9170  141.4937  163.4776 N.ar    1  UNL1       -0.2304
     18 N         137.8104  139.9664  165.5767 N.am    1  UNL1       -0.2639
     19 C         138.0779  138.6471  166.2382 C.2     1  UNL1        0.2718
     20 O         137.7038  138.4393  167.6758 O.2     1  UNL1       -0.2707
     21 C         138.7197  137.5353  165.4620 C.3     1  UNL1        0.2898
     22 O         139.0938  137.7431  164.0243 O.3     1  UNL1       -0.4628
     23 H         137.3893  140.6961  166.0861 H       1  UNL1        0.1565
     24 C         143.9542  144.9616  164.2616 C.3     1  UNL1        0.0319
     25 C         144.3867  143.9668  165.2976 C.3     1  UNL1        0.0304
     26 C         141.3481  141.3242  167.3060 C.ar    1  UNL1        0.2250
     27 C         141.3105  139.8566  166.9984 C.ar    1  UNL1        0.0593
     28 C         142.2857  139.2698  166.0214 C.ar    1  UNL1        0.0254
     29 C         143.2986  140.1506  165.3519 C.ar    1  UNL1        0.0988
     30 N         144.2738  139.5639  164.3749 N.ar    1  UNL1       -0.2423
     31 C         145.2867  140.4447  163.7054 C.ar    1  UNL1        0.0986
     32 C         145.3243  141.9124  164.0130 C.ar    1  UNL1        0.0179
     33 C         144.3491  142.4992  164.9901 C.ar    1  UNL1       -0.0013
     34 C         143.3362  141.6182  165.6595 C.ar    1  UNL1        0.0980
     35 N         142.3610  142.2050  166.6366 N.ar    1  UNL1       -0.2105
     36 C         139.7867  141.0529  169.3647 C.3     1  UNL1        0.2542
     37 O         140.3729  141.9110  168.2830 O.3     1  UNL1       -0.4561
@<TRIPOS>BOND
     1    36    37    1
     2    37    26    1
     3    26    27   ar
     4    27    28   ar
     5    28    29   ar
     6    29    30   ar
     7    30    31   ar
     8    31    32   ar
     9    32    33   ar
    10    33    25    1
    11    25    24    1
    12    24     1    1
    13     1     2    1
    14     2     3    1
    15     3     4    1
    16     4     9    1
    17     9    11    1
    18    11    12    1
    19    12    13   ar
    20    13    14   ar
    21    14    15   ar
    22    15    16   ar
    23    16    17   ar
    24    16    18    1
    25    18    19   am
    26    19    20    2
    27    19    21    1
    28    21    22    1
    29     4     5    1
    30     5     6    1
    31     4     7    1
    32     7     8    1
    33    33    34   ar
    34    34    35   ar
    35    35    26   ar
    36    34    29   ar
    37     6     1    1
    38     8     1    1
    39    17    12   ar
    40    22    15    1
    41     9    10    1
    42    18    23    1
@<TRIPOS>MOLECULE
*****
 37 42 0 0 0
SMALL
GASTEIGER

@<TRIPOS>ATOM
      1 C         139.4807  137.7068  164.5169 C.3     1  UNL1        0.0932
      2 C         140.9315  137.4485  164.7968 C.3     1  UNL1        0.0286
      3 C         141.9200  137.4235  163.6689 C.3     1  UNL1        0.0193
      4 C         141.4577  137.6569  162.2611 C.3     1  UNL1        0.0700
      5 C         140.0069  137.9152  161.9812 C.3     1  UNL1        0.0193
      6 C         139.0184  137.9402  163.1092 C.3     1  UNL1        0.0286
      7 C         140.8790  137.6801  162.8463 C.3     1  UNL1        0.1562
      8 O         139.9851  137.7027  163.8661 O.3     1  UNL1       -0.3572
      9 N         142.4462  137.6319  161.1332 N.3     1  UNL1       -0.2926
     10 H         141.9309  137.8663  160.2847 H       1  UNL1        0.1236
     11 C         143.6493  138.5270  161.1703 C.3     1  UNL1        0.1152
     12 C         143.5072  139.9570  161.6003 C.ar    1  UNL1        0.0765
     13 C         142.6769  140.9057  160.7873 C.ar    1  UNL1        0.0193
     14 C         142.5348  142.3356  161.2173 C.ar    1  UNL1        0.0411
     15 C         143.2229  142.8170  162.4602 C.ar    1  UNL1        0.1708
     16 C         144.0531  141.8684  163.2732 C.ar    1  UNL1        0.1682
     17 N         144.1952  140.4383  162.8432 N.ar    1  UNL1       -0.2304
     18 N         144.7411  142.3498  164.5161 N.am    1  UNL1       -0.2639
     19 C         144.5990  143.7797  164.9461 C.2     1  UNL1        0.2718
     20 O         145.2871  144.2611  166.1890 O.2     1  UNL1       -0.2707
     21 C         143.7688  144.7284  164.1331 C.3     1  UNL1        0.2898
     22 O         143.0807  144.2471  162.8902 O.3     1  UNL1       -0.4628
     23 H         145.2860  141.7272  165.0496 H       1  UNL1        0.1565
     24 C         138.4922  137.7318  165.6448 C.3     1  UNL1        0.0319
     25 C         137.9771  139.0424  166.1618 C.3     1  UNL1        0.0304
     26 C         138.8433  142.5153  163.4344 C.ar    1  UNL1        0.2250
     27 C         139.8058  143.5831  163.8624 C.ar    1  UNL1        0.0593
     28 C         140.4796  143.4934  165.1995 C.ar    1  UNL1        0.0254
     29 C         140.1909  142.3358  166.1086 C.ar    1  UNL1        0.0988
     30 N         140.8647  142.2460  167.4458 N.ar    1  UNL1       -0.2423
     31 C         140.5760  141.0885  168.3549 C.ar    1  UNL1        0.0986
     32 C         139.6135  140.0205  167.9270 C.ar    1  UNL1        0.0179
     33 C         138.9397  140.1103  166.5898 C.ar    1  UNL1       -0.0013
     34 C         139.2284  141.2679  165.6807 C.ar    1  UNL1        0.0980
     35 N         138.5546  141.3577  164.3435 N.ar    1  UNL1       -0.2105
     36 C         137.9744  141.3683  161.2712 C.3     1  UNL1        0.2542
     37 O         138.1695  142.6050  162.0973 O.3     1  UNL1       -0.4561
@<TRIPOS>BOND
     1    36    37    1
     2    37    26    1
     3    26    27   ar
     4    27    28   ar
     5    28    29   ar
     6    29    30   ar
     7    30    31   ar
     8    31    32   ar
     9    32    33   ar
    10    33    25    1
    11    25    24    1
    12    24     1    1
    13     1     2    1
    14     2     3    1
    15     3     4    1
    16     4     9    1
    17     9    11    1
    18    11    12    1
    19    12    13   ar
    20    13    14   ar
    21    14    15   ar
    22    15    16   ar
    23    16    17   ar
    24    16    18    1
    25    18    19   am
    26    19    20    2
    27    19    21    1
    28    21    22    1
    29     4     5    1
    30     5     6    1
    31     4     7    1
    32     7     8    1
    33    33    34   ar
    34    34    35   ar
    35    35    26   ar
    36    34    29   ar
    37     6     1    1
    38     8     1    1
    39    17    12   ar
    40    22    15    1
    41     9    10    1
    42    18    23    1
