@<TRIPOS>MOLECULE
*****
 32 35 0 0 0
SMALL
GASTEIGER

@<TRIPOS>ATOM
      1 C         139.1409  138.5058  163.1425 C.3     1  UNL1        0.0559
      2 C         139.3452  139.5601  164.1897 C.3     1  UNL1        0.2097
      3 N         139.5300  139.3197  165.6587 N.pl3   1  UNL1       -0.2170
      4 C         139.6996  140.6511  166.3286 C.2     1  UNL1        0.3339
      5 N         139.6195  141.7144  165.2736 N.2     1  UNL1       -0.0600
      6 C         139.4005  141.0402  163.9517 C.3     1  UNL1        0.2515
      7 H         139.5386  138.4422  166.1049 H       1  UNL1        0.2923
      8 C         139.1836  140.6586  162.5173 C.ar    1  UNL1        0.0297
      9 C         137.7942  140.4118  162.0089 C.ar    1  UNL1        0.0025
     10 C         137.5771  140.0303  160.5744 C.ar    1  UNL1        0.0295
     11 C         138.7495  139.8956  159.6486 C.ar    1  UNL1        0.1401
     12 F         138.5326  139.5141  158.2143 F       1  UNL1       -0.2042
     13 C         140.1391  140.1424  160.1571 C.ar    1  UNL1        0.0295
     14 C         140.3560  140.5240  161.5915 C.ar    1  UNL1        0.0025
     15 C         139.4105  142.4404  163.4138 C.ar    1  UNL1        0.0488
     16 C         140.7072  143.1816  163.2759 C.ar    1  UNL1        0.0057
     17 C         140.7172  144.5818  162.7380 C.ar    1  UNL1        0.0495
     18 C         139.4304  145.2407  162.3380 C.ar    1  UNL1        0.2223
     19 F         139.4405  146.6410  161.8001 F       1  UNL1       -0.1832
     20 N         138.1338  144.4995  162.4759 N.ar    1  UNL1       -0.2166
     21 C         138.1237  143.0993  163.0138 C.ar    1  UNL1        0.1014
     22 C         139.9119  140.8791  167.7959 C.ar    1  UNL1        0.1628
     23 C         140.4027  142.2095  168.2849 C.ar    1  UNL1        0.0312
     24 C         140.6150  142.4374  169.7522 C.ar    1  UNL1        0.0564
     25 C         140.3365  141.3350  170.7305 C.ar    1  UNL1        0.0252
     26 C         139.8457  140.0046  170.2415 C.ar    1  UNL1        0.0993
     27 N         139.6334  139.7767  168.7742 N.ar    1  UNL1       -0.2364
     28 C         141.1059  143.7679  170.2412 C.2     1  UNL1        0.2428
     29 N         140.1702  144.9391  170.2943 N.am    1  UNL1       -0.3253
     30 O         142.5323  143.9271  170.6771 O.2     1  UNL1       -0.2704
     31 H         139.2340  144.8346  170.0082 H       1  UNL1        0.1453
     32 H         140.4924  145.8123  170.6153 H       1  UNL1        0.1453
@<TRIPOS>BOND
     1     2     1    1
     2     2     3    1
     3     3     4    1
     4     4    22    1
     5    22    23   ar
     6    23    24   ar
     7    24    28    1
     8    28    29   am
     9    28    30    2
    10    24    25   ar
    11    25    26   ar
    12    26    27   ar
    13     4     5    2
    14     5     6    1
    15     6     8    1
    16     8     9   ar
    17     9    10   ar
    18    10    11   ar
    19    11    12    1
    20    11    13   ar
    21    13    14   ar
    22     6    15    1
    23    15    16   ar
    24    16    17   ar
    25    17    18   ar
    26    18    19    1
    27    18    20   ar
    28    20    21   ar
    29     6     2    1
    30    14     8   ar
    31    21    15   ar
    32    27    22   ar
    33     3     7    1
    34    29    31    1
    35    29    32    1
@<TRIPOS>MOLECULE
*****
 32 35 0 0 0
SMALL
GASTEIGER

@<TRIPOS>ATOM
      1 C         140.7832  137.4313  163.4460 C.3     1  UNL1        0.0559
      2 C         140.8895  138.5913  164.3911 C.3     1  UNL1        0.2097
      3 N         140.2497  138.6876  165.7444 N.pl3   1  UNL1       -0.2170
      4 C         140.6192  140.0144  166.3384 C.2     1  UNL1        0.3339
      5 N         141.4873  140.7382  165.3523 N.2     1  UNL1       -0.0600
      6 C         141.6544  139.8587  164.1488 C.3     1  UNL1        0.2515
      7 H         139.6863  138.0005  166.1682 H       1  UNL1        0.2923
      8 C         141.9963  139.2160  162.8373 C.ar    1  UNL1        0.0297
      9 C         141.0757  139.3714  161.6634 C.ar    1  UNL1        0.0025
     10 C         141.4176  138.7287  160.3518 C.ar    1  UNL1        0.0295
     11 C         142.6801  137.9307  160.2143 C.ar    1  UNL1        0.1401
     12 F         143.0220  137.2880  158.9028 F       1  UNL1       -0.2042
     13 C         143.6009  137.7752  161.3883 C.ar    1  UNL1        0.0295
     14 C         143.2590  138.4179  162.6998 C.ar    1  UNL1        0.0025
     15 C         142.4908  140.9917  163.6323 C.ar    1  UNL1        0.0488
     16 C         143.9634  141.0267  163.9155 C.ar    1  UNL1        0.0057
     17 C         144.7997  142.1598  163.3990 C.ar    1  UNL1        0.0495
     18 C         144.1635  143.2578  162.5993 C.ar    1  UNL1        0.2223
     19 F         144.9999  144.3908  162.0828 F       1  UNL1       -0.1832
     20 N         142.6909  143.2228  162.3162 N.ar    1  UNL1       -0.2166
     21 C         141.8545  142.0898  162.8327 C.ar    1  UNL1        0.1014
     22 C         140.1949  140.5274  167.6827 C.ar    1  UNL1        0.1628
     23 C         140.7606  141.8138  168.2072 C.ar    1  UNL1        0.0312
     24 C         140.3363  142.3268  169.5514 C.ar    1  UNL1        0.0564
     25 C         139.3464  141.5533  170.3711 C.ar    1  UNL1        0.0252
     26 C         138.7808  140.2669  169.8465 C.ar    1  UNL1        0.0993
     27 N         139.2050  139.7540  168.5023 N.ar    1  UNL1       -0.2364
     28 C         140.9020  143.6132  170.0760 C.2     1  UNL1        0.2428
     29 N         142.3557  143.7022  170.4350 N.am    1  UNL1       -0.3253
     30 O         140.0139  144.8107  170.2416 O.2     1  UNL1       -0.2704
     31 H         142.9385  142.9162  170.3263 H       1  UNL1        0.1453
     32 H         142.7269  144.5465  170.7793 H       1  UNL1        0.1453
@<TRIPOS>BOND
     1     2     1    1
     2     2     3    1
     3     3     4    1
     4     4    22    1
     5    22    23   ar
     6    23    24   ar
     7    24    28    1
     8    28    29   am
     9    28    30    2
    10    24    25   ar
    11    25    26   ar
    12    26    27   ar
    13     4     5    2
    14     5     6    1
    15     6     8    1
    16     8     9   ar
    17     9    10   ar
    18    10    11   ar
    19    11    12    1
    20    11    13   ar
    21    13    14   ar
    22     6    15    1
    23    15    16   ar
    24    16    17   ar
    25    17    18   ar
    26    18    19    1
    27    18    20   ar
    28    20    21   ar
    29     6     2    1
    30    14     8   ar
    31    21    15   ar
    32    27    22   ar
    33     3     7    1
    34    29    31    1
    35    29    32    1
@<TRIPOS>MOLECULE
*****
 32 35 0 0 0
SMALL
GASTEIGER

@<TRIPOS>ATOM
      1 C         139.1590  138.4387  163.2044 C.3     1  UNL1        0.0559
      2 C         139.3774  139.4824  164.2594 C.3     1  UNL1        0.2097
      3 N         139.5718  139.2277  165.7248 N.pl3   1  UNL1       -0.2170
      4 C         139.7543  140.5519  166.4053 C.2     1  UNL1        0.3339
      5 N         139.6727  141.6251  165.3605 N.2     1  UNL1       -0.0600
      6 C         139.4398  140.9642  164.0343 C.3     1  UNL1        0.2515
      7 H         139.5785  138.3461  166.1630 H       1  UNL1        0.2923
      8 C         139.2098  140.5969  162.5983 C.ar    1  UNL1        0.0297
      9 C         140.3776  140.4114  161.6754 C.ar    1  UNL1        0.0025
     10 C         140.1477  140.0441  160.2392 C.ar    1  UNL1        0.0295
     11 C         138.7501  139.8623  159.7262 C.ar    1  UNL1        0.1401
     12 F         138.5201  139.4950  158.2901 F       1  UNL1       -0.2042
     13 C         137.5821  140.0478  160.6491 C.ar    1  UNL1        0.0295
     14 C         137.8121  140.4150  162.0851 C.ar    1  UNL1        0.0025
     15 C         139.4540  142.3691  163.5089 C.ar    1  UNL1        0.0488
     16 C         138.1680  143.1260  163.3568 C.ar    1  UNL1        0.0057
     17 C         138.1822  144.5309  162.8315 C.ar    1  UNL1        0.0495
     18 C         139.4825  145.1789  162.4582 C.ar    1  UNL1        0.2223
     19 F         139.4967  146.5838  161.9328 F       1  UNL1       -0.1832
     20 N         140.7685  144.4220  162.6103 N.ar    1  UNL1       -0.2166
     21 C         140.7543  143.0170  163.1357 C.ar    1  UNL1        0.1014
     22 C         139.9790  140.7654  167.8730 C.ar    1  UNL1        0.1628
     23 C         140.6521  142.0164  168.3545 C.ar    1  UNL1        0.0312
     24 C         140.8767  142.2299  169.8221 C.ar    1  UNL1        0.0564
     25 C         140.4282  141.1924  170.8082 C.ar    1  UNL1        0.0252
     26 C         139.7551  139.9414  170.3267 C.ar    1  UNL1        0.0993
     27 N         139.5305  139.7279  168.8591 N.ar    1  UNL1       -0.2364
     28 C         141.5499  143.4809  170.3037 C.2     1  UNL1        0.2428
     29 N         142.9809  143.4379  170.7511 N.am    1  UNL1       -0.3253
     30 O         140.7920  144.7749  170.3378 O.2     1  UNL1       -0.2704
     31 H         143.4784  142.5886  170.7287 H       1  UNL1        0.1453
     32 H         143.4227  144.2590  171.0672 H       1  UNL1        0.1453
@<TRIPOS>BOND
     1     2     1    1
     2     2     3    1
     3     3     4    1
     4     4    22    1
     5    22    23   ar
     6    23    24   ar
     7    24    28    1
     8    28    29   am
     9    28    30    2
    10    24    25   ar
    11    25    26   ar
    12    26    27   ar
    13     4     5    2
    14     5     6    1
    15     6     8    1
    16     8     9   ar
    17     9    10   ar
    18    10    11   ar
    19    11    12    1
    20    11    13   ar
    21    13    14   ar
    22     6    15    1
    23    15    16   ar
    24    16    17   ar
    25    17    18   ar
    26    18    19    1
    27    18    20   ar
    28    20    21   ar
    29     6     2    1
    30    14     8   ar
    31    21    15   ar
    32    27    22   ar
    33     3     7    1
    34    29    31    1
    35    29    32    1
@<TRIPOS>MOLECULE
*****
 32 35 0 0 0
SMALL
GASTEIGER

@<TRIPOS>ATOM
      1 C         141.6863  137.6416  163.3519 C.3     1  UNL1        0.0559
      2 C         141.5313  138.6513  164.4502 C.3     1  UNL1        0.2097
      3 N         142.1484  138.5712  165.8150 N.pl3   1  UNL1       -0.2170
      4 C         141.7304  139.7889  166.5849 C.2     1  UNL1        0.3339
      5 N         140.8549  140.6214  165.6959 N.2     1  UNL1       -0.0600
      6 C         140.7318  139.9184  164.3766 C.3     1  UNL1        0.2515
      7 H         142.7264  137.8467  166.1472 H       1  UNL1        0.2923
      8 C         140.4283  139.4602  162.9809 C.ar    1  UNL1        0.0297
      9 C         139.2378  138.5856  162.7209 C.ar    1  UNL1        0.0025
     10 C         138.9343  138.1273  161.3252 C.ar    1  UNL1        0.0295
     11 C         139.8213  138.5438  160.1896 C.ar    1  UNL1        0.1401
     12 F         139.5178  138.0856  158.7939 F       1  UNL1       -0.2042
     13 C         141.0119  139.4185  160.4496 C.ar    1  UNL1        0.0295
     14 C         141.3154  139.8767  161.8453 C.ar    1  UNL1        0.0025
     15 C         139.8689  141.0897  164.0112 C.ar    1  UNL1        0.0488
     16 C         138.3910  141.0397  164.2624 C.ar    1  UNL1        0.0057
     17 C         137.5281  142.2110  163.8970 C.ar    1  UNL1        0.0495
     18 C         138.1432  143.4323  163.2804 C.ar    1  UNL1        0.2223
     19 F         137.2802  144.6036  162.9150 F       1  UNL1       -0.1832
     20 N         139.6211  143.4822  163.0292 N.ar    1  UNL1       -0.2166
     21 C         140.4840  142.3109  163.3946 C.ar    1  UNL1        0.1014
     22 C         142.1196  140.1164  167.9961 C.ar    1  UNL1        0.1628
     23 C         142.0074  141.5257  168.4972 C.ar    1  UNL1        0.0312
     24 C         142.3966  141.8531  169.9083 C.ar    1  UNL1        0.0564
     25 C         142.8980  140.7712  170.8183 C.ar    1  UNL1        0.0252
     26 C         143.0102  139.3619  170.3172 C.ar    1  UNL1        0.0993
     27 N         142.6210  139.0345  168.9061 N.ar    1  UNL1       -0.2364
     28 C         142.2845  143.2625  170.4095 C.2     1  UNL1        0.2428
     29 N         143.4302  143.8896  171.1471 N.am    1  UNL1       -0.3253
     30 O         141.0267  144.0447  170.1730 O.2     1  UNL1       -0.2704
     31 H         144.2557  143.3762  171.3023 H       1  UNL1        0.1453
     32 H         143.3566  144.8146  171.4760 H       1  UNL1        0.1453
@<TRIPOS>BOND
     1     2     1    1
     2     2     3    1
     3     3     4    1
     4     4    22    1
     5    22    23   ar
     6    23    24   ar
     7    24    28    1
     8    28    29   am
     9    28    30    2
    10    24    25   ar
    11    25    26   ar
    12    26    27   ar
    13     4     5    2
    14     5     6    1
    15     6     8    1
    16     8     9   ar
    17     9    10   ar
    18    10    11   ar
    19    11    12    1
    20    11    13   ar
    21    13    14   ar
    22     6    15    1
    23    15    16   ar
    24    16    17   ar
    25    17    18   ar
    26    18    19    1
    27    18    20   ar
    28    20    21   ar
    29     6     2    1
    30    14     8   ar
    31    21    15   ar
    32    27    22   ar
    33     3     7    1
    34    29    31    1
    35    29    32    1
@<TRIPOS>MOLECULE
*****
 32 35 0 0 0
SMALL
GASTEIGER

@<TRIPOS>ATOM
      1 C         143.5081  140.0116  162.9444 C.3     1  UNL1        0.0559
      2 C         142.4899  140.6300  163.8558 C.3     1  UNL1        0.2097
      3 N         142.0819  140.1116  165.2030 N.pl3   1  UNL1       -0.2170
      4 C         141.0407  141.0367  165.7599 C.2     1  UNL1        0.3339
      5 N         140.8052  142.1269  164.7569 N.2     1  UNL1       -0.0600
      6 C         141.7008  141.8756  163.5802 C.3     1  UNL1        0.2515
      7 H         142.4354  139.3056  165.6442 H       1  UNL1        0.2923
      8 C         142.4649  141.8851  162.2894 C.ar    1  UNL1        0.0297
      9 C         143.8007  142.5632  162.2136 C.ar    1  UNL1        0.0025
     10 C         144.5648  142.5727  160.9228 C.ar    1  UNL1        0.0295
     11 C         143.9931  141.9041  159.7079 C.ar    1  UNL1        0.1401
     12 F         144.7572  141.9136  158.4171 F       1  UNL1       -0.2042
     13 C         142.6572  141.2260  159.7837 C.ar    1  UNL1        0.0295
     14 C         141.8931  141.2165  161.0745 C.ar    1  UNL1        0.0025
     15 C         141.0715  143.1232  163.0347 C.ar    1  UNL1        0.0488
     16 C         141.7209  144.4549  163.2689 C.ar    1  UNL1        0.0057
     17 C         141.0916  145.7025  162.7233 C.ar    1  UNL1        0.0495
     18 C         139.8129  145.6183  161.9436 C.ar    1  UNL1        0.2223
     19 F         139.1837  146.8659  161.3981 F       1  UNL1       -0.1832
     20 N         139.1636  144.2866  161.7094 N.ar    1  UNL1       -0.2166
     21 C         139.7929  143.0390  162.2549 C.ar    1  UNL1        0.1014
     22 C         140.3554  140.8962  167.0868 C.ar    1  UNL1        0.1628
     23 C         140.6324  141.8828  168.1822 C.ar    1  UNL1        0.0312
     24 C         139.9470  141.7422  169.5090 C.ar    1  UNL1        0.0564
     25 C         138.9847  140.6151  169.7404 C.ar    1  UNL1        0.0252
     26 C         138.7077  139.6285  168.6451 C.ar    1  UNL1        0.0993
     27 N         139.3930  139.7691  167.3182 N.ar    1  UNL1       -0.2364
     28 C         140.2240  142.7288  170.6045 C.2     1  UNL1        0.2428
     29 N         140.1043  144.1999  170.3368 N.am    1  UNL1       -0.3253
     30 O         140.6207  142.2443  171.9675 O.2     1  UNL1       -0.2704
     31 H         139.8439  144.5179  169.4422 H       1  UNL1        0.1453
     32 H         140.2861  144.8474  171.0558 H       1  UNL1        0.1453
@<TRIPOS>BOND
     1     2     1    1
     2     2     3    1
     3     3     4    1
     4     4    22    1
     5    22    23   ar
     6    23    24   ar
     7    24    28    1
     8    28    29   am
     9    28    30    2
    10    24    25   ar
    11    25    26   ar
    12    26    27   ar
    13     4     5    2
    14     5     6    1
    15     6     8    1
    16     8     9   ar
    17     9    10   ar
    18    10    11   ar
    19    11    12    1
    20    11    13   ar
    21    13    14   ar
    22     6    15    1
    23    15    16   ar
    24    16    17   ar
    25    17    18   ar
    26    18    19    1
    27    18    20   ar
    28    20    21   ar
    29     6     2    1
    30    14     8   ar
    31    21    15   ar
    32    27    22   ar
    33     3     7    1
    34    29    31    1
    35    29    32    1
@<TRIPOS>MOLECULE
*****
 32 35 0 0 0
SMALL
GASTEIGER

@<TRIPOS>ATOM
      1 C         141.6255  145.3176  163.5284 C.3     1  UNL1        0.0559
      2 C         141.2258  144.8674  162.1545 C.3     1  UNL1        0.2097
      3 N         141.5637  145.5589  160.8670 N.pl3   1  UNL1       -0.2170
      4 C         140.9647  144.7655  159.7437 C.2     1  UNL1        0.3339
      5 N         140.2566  143.5837  160.3369 N.2     1  UNL1       -0.0600
      6 C         140.4180  143.6466  161.8269 C.3     1  UNL1        0.2515
      7 H         142.0867  146.3879  160.7753 H       1  UNL1        0.2923
      8 C         140.4101  143.4457  163.3133 C.ar    1  UNL1        0.0297
      9 C         141.4515  142.5801  163.9586 C.ar    1  UNL1        0.0025
     10 C         141.4437  142.3791  165.4451 C.ar    1  UNL1        0.0295
     11 C         140.3945  143.0436  166.2862 C.ar    1  UNL1        0.1401
     12 F         140.3867  142.8426  167.7727 F       1  UNL1       -0.2042
     13 C         139.3531  143.9092  165.6410 C.ar    1  UNL1        0.0295
     14 C         139.3609  144.1102  164.1545 C.ar    1  UNL1        0.0025
     15 C         139.6086  142.3839  161.8101 C.ar    1  UNL1        0.0488
     16 C         140.2801  141.0658  161.5619 C.ar    1  UNL1        0.0057
     17 C         139.4707  139.8030  161.5451 C.ar    1  UNL1        0.0495
     18 C         137.9897  139.8584  161.7765 C.ar    1  UNL1        0.2223
     19 F         137.1803  138.5956  161.7596 F       1  UNL1       -0.1832
     20 N         137.3181  141.1764  162.0246 N.ar    1  UNL1       -0.2166
     21 C         138.1275  142.4393  162.0414 C.ar    1  UNL1        0.1014
     22 C         141.0575  145.0959  158.2834 C.ar    1  UNL1        0.1628
     23 C         139.9693  145.8897  157.6234 C.ar    1  UNL1        0.0312
     24 C         140.0621  146.2201  156.1633 C.ar    1  UNL1        0.0564
     25 C         141.2433  145.7568  155.3631 C.ar    1  UNL1        0.0252
     26 C         142.3315  144.9631  156.0231 C.ar    1  UNL1        0.0993
     27 N         142.2387  144.6327  157.4833 N.ar    1  UNL1       -0.2364
     28 C         138.9738  147.0138  155.5032 C.2     1  UNL1        0.2428
     29 N         137.8455  146.3084  154.8109 N.am    1  UNL1       -0.3253
     30 O         139.0139  148.5129  155.5354 O.2     1  UNL1       -0.2704
     31 H         137.8192  145.3245  154.7898 H       1  UNL1        0.1453
     32 H         137.1312  146.8293  154.3777 H       1  UNL1        0.1453
@<TRIPOS>BOND
     1     2     1    1
     2     2     3    1
     3     3     4    1
     4     4    22    1
     5    22    23   ar
     6    23    24   ar
     7    24    28    1
     8    28    29   am
     9    28    30    2
    10    24    25   ar
    11    25    26   ar
    12    26    27   ar
    13     4     5    2
    14     5     6    1
    15     6     8    1
    16     8     9   ar
    17     9    10   ar
    18    10    11   ar
    19    11    12    1
    20    11    13   ar
    21    13    14   ar
    22     6    15    1
    23    15    16   ar
    24    16    17   ar
    25    17    18   ar
    26    18    19    1
    27    18    20   ar
    28    20    21   ar
    29     6     2    1
    30    14     8   ar
    31    21    15   ar
    32    27    22   ar
    33     3     7    1
    34    29    31    1
    35    29    32    1
@<TRIPOS>MOLECULE
*****
 32 35 0 0 0
SMALL
GASTEIGER

@<TRIPOS>ATOM
      1 C         139.5994  138.3134  161.6203 C.3     1  UNL1        0.0559
      2 C         139.8670  139.1792  162.8156 C.3     1  UNL1        0.2097
      3 N         140.2127  138.6977  164.1934 N.pl3   1  UNL1       -0.2170
      4 C         140.3953  139.8995  165.0723 C.2     1  UNL1        0.3339
      5 N         140.1624  141.1238  164.2376 N.2     1  UNL1       -0.0600
      6 C         139.8359  140.6787  162.8429 C.3     1  UNL1        0.2515
      7 H         140.3038  137.7579  164.4721 H       1  UNL1        0.2923
      8 C         139.4877  140.5410  161.3904 C.ar    1  UNL1        0.0297
      9 C         140.5677  140.6018  160.3512 C.ar    1  UNL1        0.0025
     10 C         140.2195  140.4641  158.8986 C.ar    1  UNL1        0.0295
     11 C         138.7914  140.2657  158.4853 C.ar    1  UNL1        0.1401
     12 F         138.4432  140.1280  157.0328 F       1  UNL1       -0.2042
     13 C         137.7113  140.2049  159.5245 C.ar    1  UNL1        0.0295
     14 C         138.0595  140.3426  160.9770 C.ar    1  UNL1        0.0025
     15 C         139.7320  142.1494  162.5665 C.ar    1  UNL1        0.0488
     16 C         140.9721  142.9543  162.3129 C.ar    1  UNL1        0.0057
     17 C         140.8682  144.4249  162.0365 C.ar    1  UNL1        0.0495
     18 C         139.5242  145.0906  162.0136 C.ar    1  UNL1        0.2223
     19 F         139.4204  146.5614  161.7372 F       1  UNL1       -0.1832
     20 N         138.2842  144.2858  162.2672 N.ar    1  UNL1       -0.2166
     21 C         138.3880  142.8151  162.5436 C.ar    1  UNL1        0.1014
     22 C         140.7487  139.8803  166.5300 C.ar    1  UNL1        0.1628
     23 C         139.7265  140.2737  167.5548 C.ar    1  UNL1        0.0312
     24 C         140.0799  140.2545  169.0124 C.ar    1  UNL1        0.0564
     25 C         141.4556  139.8419  169.4452 C.ar    1  UNL1        0.0252
     26 C         142.4778  139.4485  168.4204 C.ar    1  UNL1        0.0993
     27 N         142.1244  139.4677  166.9628 N.ar    1  UNL1       -0.2364
     28 C         139.0577  140.6479  170.0373 C.2     1  UNL1        0.2428
     29 N         137.9601  139.6945  170.4062 N.am    1  UNL1       -0.3253
     30 O         139.1331  141.9948  170.6932 O.2     1  UNL1       -0.2704
     31 H         137.9106  138.8105  169.9757 H       1  UNL1        0.1453
     32 H         137.2892  139.9526  171.0788 H       1  UNL1        0.1453
@<TRIPOS>BOND
     1     2     1    1
     2     2     3    1
     3     3     4    1
     4     4    22    1
     5    22    23   ar
     6    23    24   ar
     7    24    28    1
     8    28    29   am
     9    28    30    2
    10    24    25   ar
    11    25    26   ar
    12    26    27   ar
    13     4     5    2
    14     5     6    1
    15     6     8    1
    16     8     9   ar
    17     9    10   ar
    18    10    11   ar
    19    11    12    1
    20    11    13   ar
    21    13    14   ar
    22     6    15    1
    23    15    16   ar
    24    16    17   ar
    25    17    18   ar
    26    18    19    1
    27    18    20   ar
    28    20    21   ar
    29     6     2    1
    30    14     8   ar
    31    21    15   ar
    32    27    22   ar
    33     3     7    1
    34    29    31    1
    35    29    32    1
@<TRIPOS>MOLECULE
*****
 32 35 0 0 0
SMALL
GASTEIGER

@<TRIPOS>ATOM
      1 C         144.1242  139.8077  162.3318 C.3     1  UNL1        0.0559
      2 C         143.2722  140.3357  163.4478 C.3     1  UNL1        0.2097
      3 N         143.0952  139.7040  164.7967 N.pl3   1  UNL1       -0.2170
      4 C         142.1613  140.5661  165.5933 C.2     1  UNL1        0.3339
      5 N         141.7611  141.7306  164.7367 N.2     1  UNL1       -0.0600
      6 C         142.4476  141.5883  163.4107 C.3     1  UNL1        0.2515
      7 H         143.5178  138.8700  165.1050 H       1  UNL1        0.2923
      8 C         142.9854  141.7132  162.0160 C.ar    1  UNL1        0.0297
      9 C         144.2561  142.4704  161.7672 C.ar    1  UNL1        0.0025
     10 C         144.7939  142.5954  160.3724 C.ar    1  UNL1        0.0295
     11 C         144.0609  141.9632  159.2266 C.ar    1  UNL1        0.1401
     12 F         144.5987  142.0881  157.8319 F       1  UNL1       -0.2042
     13 C         142.7901  141.2059  159.4754 C.ar    1  UNL1        0.0295
     14 C         142.2524  141.0809  160.8701 C.ar    1  UNL1        0.0025
     15 C         141.7355  142.8669  163.0821 C.ar    1  UNL1        0.0488
     16 C         142.3185  144.1813  163.5094 C.ar    1  UNL1        0.0057
     17 C         141.6063  145.4599  163.1807 C.ar    1  UNL1        0.0495
     18 C         140.3112  145.4241  162.4248 C.ar    1  UNL1        0.2223
     19 F         139.5991  146.7028  162.0962 F       1  UNL1       -0.1832
     20 N         139.7283  144.1098  161.9975 N.ar    1  UNL1       -0.2166
     21 C         140.4404  142.8311  162.3262 C.ar    1  UNL1        0.1014
     22 C         141.7073  140.3088  166.9997 C.ar    1  UNL1        0.1628
     23 C         142.6424  139.6730  167.9852 C.ar    1  UNL1        0.0312
     24 C         142.1884  139.4157  169.3914 C.ar    1  UNL1        0.0564
     25 C         140.7992  139.7942  169.8122 C.ar    1  UNL1        0.0252
     26 C         139.8641  140.4299  168.8266 C.ar    1  UNL1        0.0993
     27 N         140.3181  140.6872  167.4204 N.ar    1  UNL1       -0.2364
     28 C         143.1235  138.7800  170.3771 C.2     1  UNL1        0.2428
     29 N         143.7976  139.6202  171.4209 N.am    1  UNL1       -0.3253
     30 O         143.3845  137.3040  170.3188 O.2     1  UNL1       -0.2704
     31 H         143.6263  140.5890  171.4591 H       1  UNL1        0.1453
     32 H         144.4114  139.2030  172.0678 H       1  UNL1        0.1453
@<TRIPOS>BOND
     1     2     1    1
     2     2     3    1
     3     3     4    1
     4     4    22    1
     5    22    23   ar
     6    23    24   ar
     7    24    28    1
     8    28    29   am
     9    28    30    2
    10    24    25   ar
    11    25    26   ar
    12    26    27   ar
    13     4     5    2
    14     5     6    1
    15     6     8    1
    16     8     9   ar
    17     9    10   ar
    18    10    11   ar
    19    11    12    1
    20    11    13   ar
    21    13    14   ar
    22     6    15    1
    23    15    16   ar
    24    16    17   ar
    25    17    18   ar
    26    18    19    1
    27    18    20   ar
    28    20    21   ar
    29     6     2    1
    30    14     8   ar
    31    21    15   ar
    32    27    22   ar
    33     3     7    1
    34    29    31    1
    35    29    32    1
@<TRIPOS>MOLECULE
*****
 32 35 0 0 0
SMALL
GASTEIGER

@<TRIPOS>ATOM
      1 C         141.9800  145.1993  163.6335 C.3     1  UNL1        0.0559
      2 C         142.0067  144.6682  162.2309 C.3     1  UNL1        0.2097
      3 N         141.6515  145.4342  160.9912 N.pl3   1  UNL1       -0.2170
      4 C         141.8186  144.5173  159.8159 C.2     1  UNL1        0.3339
      5 N         142.2772  143.1846  160.3292 N.2     1  UNL1       -0.0600
      6 C         142.3934  143.2778  161.8218 C.3     1  UNL1        0.2515
      7 H         141.3598  146.3738  160.9552 H       1  UNL1        0.2923
      8 C         142.5995  143.0714  163.2931 C.ar    1  UNL1        0.0297
      9 C         141.4827  142.5354  164.1389 C.ar    1  UNL1        0.0025
     10 C         141.6887  142.3290  165.6104 C.ar    1  UNL1        0.0295
     11 C         143.0116  142.6585  166.2359 C.ar    1  UNL1        0.1401
     12 F         143.2177  142.4521  167.7072 F       1  UNL1       -0.2042
     13 C         144.1285  143.1945  165.3901 C.ar    1  UNL1        0.0295
     14 C         143.9225  143.4009  163.9187 C.ar    1  UNL1        0.0025
     15 C         142.8232  141.8443  161.7203 C.ar    1  UNL1        0.0488
     16 C         141.7936  140.7568  161.6356 C.ar    1  UNL1        0.0057
     17 C         142.2234  139.3233  161.5341 C.ar    1  UNL1        0.0495
     18 C         143.6828  138.9773  161.5173 C.ar    1  UNL1        0.2223
     19 F         144.1126  137.5437  161.4158 F       1  UNL1       -0.1832
     20 N         144.7124  140.0647  161.6021 N.ar    1  UNL1       -0.2166
     21 C         144.2827  141.4983  161.7035 C.ar    1  UNL1        0.1014
     22 C         141.5707  144.8711  158.3793 C.ar    1  UNL1        0.1628
     23 C         140.4254  145.7684  158.0148 C.ar    1  UNL1        0.0312
     24 C         140.1775  146.1221  156.5784 C.ar    1  UNL1        0.0564
     25 C         141.0750  145.5785  155.5065 C.ar    1  UNL1        0.0252
     26 C         142.2204  144.6812  155.8710 C.ar    1  UNL1        0.0993
     27 N         142.4683  144.3275  157.3074 N.ar    1  UNL1       -0.2364
     28 C         139.0321  147.0194  156.2137 C.2     1  UNL1        0.2428
     29 N         138.1771  146.6982  155.0239 N.am    1  UNL1       -0.3253
     30 O         138.7418  148.2379  157.0389 O.2     1  UNL1       -0.2704
     31 H         138.3676  145.8985  154.4823 H       1  UNL1        0.1453
     32 H         137.4253  147.2872  154.7846 H       1  UNL1        0.1453
@<TRIPOS>BOND
     1     2     1    1
     2     2     3    1
     3     3     4    1
     4     4    22    1
     5    22    23   ar
     6    23    24   ar
     7    24    28    1
     8    28    29   am
     9    28    30    2
    10    24    25   ar
    11    25    26   ar
    12    26    27   ar
    13     4     5    2
    14     5     6    1
    15     6     8    1
    16     8     9   ar
    17     9    10   ar
    18    10    11   ar
    19    11    12    1
    20    11    13   ar
    21    13    14   ar
    22     6    15    1
    23    15    16   ar
    24    16    17   ar
    25    17    18   ar
    26    18    19    1
    27    18    20   ar
    28    20    21   ar
    29     6     2    1
    30    14     8   ar
    31    21    15   ar
    32    27    22   ar
    33     3     7    1
    34    29    31    1
    35    29    32    1
