@<TRIPOS>MOLECULE
*****
 23 25 0 0 0
SMALL
GASTEIGER

@<TRIPOS>ATOM
      1 C         138.8012  144.8458  165.0474 C.3     1  UNL1        0.0523
      2 C         140.0115  144.3192  164.3347 C.ar    1  UNL1        0.0656
      3 C         140.9882  145.1317  163.5373 C.ar    1  UNL1        0.0739
      4 C         142.0379  144.2024  163.0041 C.ar    1  UNL1        0.2434
      5 N         141.7100  142.8154  163.4721 N.ar    1  UNL1       -0.1277
      6 N         140.4577  142.8876  164.2945 N.ar    1  UNL1       -0.2308
      7 C         139.7718  141.7313  164.9597 C.ar    1  UNL1        0.0834
      8 C         138.7919  140.8967  164.1897 C.ar    1  UNL1        0.0201
      9 C         138.1060  139.7404  164.8550 C.ar    1  UNL1        0.0138
     10 C         138.4002  139.4188  166.2903 C.ar    1  UNL1        0.0683
     11 CL        137.7143  138.2625  166.9555 Cl      1  UNL1       -0.0814
     12 C         139.3801  140.2534  167.0603 C.ar    1  UNL1        0.0697
     13 CL        139.6743  139.9318  168.4956 Cl      1  UNL1       -0.0813
     14 C         140.0660  141.4097  166.3950 C.ar    1  UNL1        0.0314
     15 O         143.2098  144.5916  162.1526 O.3     1  UNL1       -0.4577
     16 C         144.5235  143.8865  162.3171 C.3     1  UNL1        0.2244
     17 C         144.8165  142.6505  161.5192 C.3     1  UNL1        0.1202
     18 N         144.6600  141.2975  162.1477 N.3     1  UNL1       -0.2653
     19 C         144.0211  140.1813  161.3757 C.3     1  UNL1        0.1047
     20 C         143.8647  138.8284  162.0042 C.3     1  UNL1        0.1595
     21 O         144.3470  138.5916  163.4046 O.3     1  UNL1       -0.3508
     22 C         144.9859  139.7078  164.1766 C.3     1  UNL1        0.1595
     23 C         145.1423  141.0607  163.5482 C.3     1  UNL1        0.1047
@<TRIPOS>BOND
     1     1     2    1
     2     2     3   ar
     3     3     4   ar
     4     4    15    1
     5    15    16    1
     6    16    17    1
     7    17    18    1
     8    18    19    1
     9    19    20    1
    10    20    21    1
    11    21    22    1
    12    22    23    1
    13     4     5   ar
    14     5     6   ar
    15     6     7    1
    16     7     8   ar
    17     8     9   ar
    18     9    10   ar
    19    10    11    1
    20    10    12   ar
    21    12    13    1
    22    12    14   ar
    23     6     2   ar
    24    14     7   ar
    25    23    18    1
@<TRIPOS>MOLECULE
*****
 23 25 0 0 0
SMALL
GASTEIGER

@<TRIPOS>ATOM
      1 C         137.9517  138.7347  166.6494 C.3     1  UNL1        0.0523
      2 C         139.1093  138.6066  165.7041 C.ar    1  UNL1        0.0656
      3 C         139.1658  137.7220  164.4941 C.ar    1  UNL1        0.0739
      4 C         140.5051  137.9093  163.8450 C.ar    1  UNL1        0.2434
      5 N         141.2763  138.9098  164.6539 N.ar    1  UNL1       -0.1277
      6 N         140.4137  139.3408  165.8029 N.ar    1  UNL1       -0.2308
      7 C         140.7895  140.3318  166.8643 C.ar    1  UNL1        0.0834
      8 C         140.2053  141.7132  166.8412 C.ar    1  UNL1        0.0201
      9 C         140.5811  142.7042  167.9026 C.ar    1  UNL1        0.0138
     10 C         141.5410  142.3139  168.9871 C.ar    1  UNL1        0.0683
     11 CL        141.9168  143.3049  170.0485 Cl      1  UNL1       -0.0814
     12 C         142.1252  140.9325  169.0103 C.ar    1  UNL1        0.0697
     13 CL        143.0851  140.5422  170.0948 Cl      1  UNL1       -0.0813
     14 C         141.7494  139.9415  167.9489 C.ar    1  UNL1        0.0314
     15 O         140.9882  137.2177  162.6048 O.3     1  UNL1       -0.4577
     16 C         141.9281  137.9215  161.6713 C.3     1  UNL1        0.2244
     17 C         143.3940  137.9776  161.9843 C.3     1  UNL1        0.1202
     18 N         144.0407  139.2902  162.3145 N.3     1  UNL1       -0.2653
     19 C         144.0150  140.4108  161.3177 C.3     1  UNL1        0.1047
     20 C         144.6617  141.7233  161.6480 C.3     1  UNL1        0.1595
     21 O         145.3341  141.9152  162.9750 O.3     1  UNL1       -0.3508
     22 C         145.3598  140.7946  163.9718 C.3     1  UNL1        0.1595
     23 C         144.7131  139.4822  163.6416 C.3     1  UNL1        0.1047
@<TRIPOS>BOND
     1     1     2    1
     2     2     3   ar
     3     3     4   ar
     4     4    15    1
     5    15    16    1
     6    16    17    1
     7    17    18    1
     8    18    19    1
     9    19    20    1
    10    20    21    1
    11    21    22    1
    12    22    23    1
    13     4     5   ar
    14     5     6   ar
    15     6     7    1
    16     7     8   ar
    17     8     9   ar
    18     9    10   ar
    19    10    11    1
    20    10    12   ar
    21    12    13    1
    22    12    14   ar
    23     6     2   ar
    24    14     7   ar
    25    23    18    1
@<TRIPOS>MOLECULE
*****
 23 25 0 0 0
SMALL
GASTEIGER

@<TRIPOS>ATOM
      1 C         139.2196  137.6437  164.7700 C.3     1  UNL1        0.0523
      2 C         138.8768  139.0984  164.6420 C.ar    1  UNL1        0.0656
      3 C         138.0177  139.7113  163.5761 C.ar    1  UNL1        0.0739
      4 C         137.9429  141.1873  163.8328 C.ar    1  UNL1        0.2434
      5 N         138.7557  141.4865  165.0574 N.ar    1  UNL1       -0.1277
      6 N         139.3329  140.1956  165.5576 N.ar    1  UNL1       -0.2308
      7 C         140.2119  140.0307  166.7619 C.ar    1  UNL1        0.0834
      8 C         141.6774  139.7614  166.5895 C.ar    1  UNL1        0.0201
      9 C         142.5564  139.5966  167.7937 C.ar    1  UNL1        0.0138
     10 C         141.9698  139.7009  169.1703 C.ar    1  UNL1        0.0683
     11 CL        142.8488  139.5361  170.3746 Cl      1  UNL1       -0.0814
     12 C         140.5043  139.9702  169.3427 C.ar    1  UNL1        0.0697
     13 CL        139.9178  140.0745  170.7193 Cl      1  UNL1       -0.0813
     14 C         139.6254  140.1351  168.1385 C.ar    1  UNL1        0.0314
     15 O         137.1878  142.1882  163.0094 O.3     1  UNL1       -0.4577
     16 C         137.9318  143.2267  162.2232 C.3     1  UNL1        0.2244
     17 C         138.7459  144.2659  162.9354 C.3     1  UNL1        0.1202
     18 N         140.2179  144.3776  162.6695 N.3     1  UNL1       -0.2653
     19 C         141.1225  144.9845  163.7007 C.3     1  UNL1        0.1047
     20 C         142.5944  145.0961  163.4347 C.3     1  UNL1        0.1595
     21 O         143.1618  144.6010  162.1375 O.3     1  UNL1       -0.3508
     22 C         142.2573  143.9942  161.1062 C.3     1  UNL1        0.1595
     23 C         140.7854  143.8825  161.3722 C.3     1  UNL1        0.1047
@<TRIPOS>BOND
     1     1     2    1
     2     2     3   ar
     3     3     4   ar
     4     4    15    1
     5    15    16    1
     6    16    17    1
     7    17    18    1
     8    18    19    1
     9    19    20    1
    10    20    21    1
    11    21    22    1
    12    22    23    1
    13     4     5   ar
    14     5     6   ar
    15     6     7    1
    16     7     8   ar
    17     8     9   ar
    18     9    10   ar
    19    10    11    1
    20    10    12   ar
    21    12    13    1
    22    12    14   ar
    23     6     2   ar
    24    14     7   ar
    25    23    18    1
@<TRIPOS>MOLECULE
*****
 23 25 0 0 0
SMALL
GASTEIGER

@<TRIPOS>ATOM
      1 C         144.8731  139.4713  164.2448 C.3     1  UNL1        0.0523
      2 C         143.4286  139.0684  164.2117 C.ar    1  UNL1        0.0656
      3 C         142.7672  138.2446  163.1469 C.ar    1  UNL1        0.0739
      4 C         141.3218  138.0856  163.5147 C.ar    1  UNL1        0.2434
      5 N         141.0898  138.8110  164.8070 N.ar    1  UNL1       -0.1277
      6 N         142.3919  139.4184  165.2378 N.ar    1  UNL1       -0.2308
      7 C         142.6177  140.2329  166.4770 C.ar    1  UNL1        0.0834
      8 C         142.8862  141.7047  166.3686 C.ar    1  UNL1        0.0201
      9 C         143.1120  142.5191  167.6078 C.ar    1  UNL1        0.0138
     10 C         143.0693  141.8618  168.9554 C.ar    1  UNL1        0.0683
     11 CL        143.2950  142.6763  170.1946 Cl      1  UNL1       -0.0814
     12 C         142.8007  140.3900  169.0639 C.ar    1  UNL1        0.0697
     13 CL        142.7580  139.7327  170.4115 Cl      1  UNL1       -0.0813
     14 C         142.5750  139.5756  167.8247 C.ar    1  UNL1        0.0314
     15 O         140.2895  137.3332  162.7284 O.3     1  UNL1       -0.4577
     16 C         138.8332  137.6406  162.9153 C.3     1  UNL1        0.2244
     17 C         138.1238  138.5323  161.9399 C.3     1  UNL1        0.1202
     18 N         138.0466  140.0089  162.1926 N.3     1  UNL1       -0.2653
     19 C         138.1522  140.9723  161.0477 C.3     1  UNL1        0.1047
     20 C         138.0750  142.4488  161.3004 C.3     1  UNL1        0.1595
     21 O         137.8923  142.9620  162.6980 O.3     1  UNL1       -0.3508
     22 C         137.7867  141.9986  163.8428 C.3     1  UNL1        0.1595
     23 C         137.8638  140.5221  163.5901 C.3     1  UNL1        0.1047
@<TRIPOS>BOND
     1     1     2    1
     2     2     3   ar
     3     3     4   ar
     4     4    15    1
     5    15    16    1
     6    16    17    1
     7    17    18    1
     8    18    19    1
     9    19    20    1
    10    20    21    1
    11    21    22    1
    12    22    23    1
    13     4     5   ar
    14     5     6   ar
    15     6     7    1
    16     7     8   ar
    17     8     9   ar
    18     9    10   ar
    19    10    11    1
    20    10    12   ar
    21    12    13    1
    22    12    14   ar
    23     6     2   ar
    24    14     7   ar
    25    23    18    1
@<TRIPOS>MOLECULE
*****
 23 25 0 0 0
SMALL
GASTEIGER

@<TRIPOS>ATOM
      1 C         143.7708  138.0477  166.4546 C.3     1  UNL1        0.0523
      2 C         143.9469  139.2578  165.5860 C.ar    1  UNL1        0.0656
      3 C         144.8075  139.3459  164.3606 C.ar    1  UNL1        0.0739
      4 C         144.6859  140.7349  163.8076 C.ar    1  UNL1        0.2434
      5 N         143.7500  141.5053  164.6912 N.ar    1  UNL1       -0.1277
      6 N         143.2933  140.5925  165.7903 N.ar    1  UNL1       -0.2308
      7 C         142.3489  140.9512  166.8991 C.ar    1  UNL1        0.0834
      8 C         140.9843  140.3307  166.9520 C.ar    1  UNL1        0.0201
      9 C         140.0398  140.6894  168.0608 C.ar    1  UNL1        0.0138
     10 C         140.4600  141.6686  169.1166 C.ar    1  UNL1        0.0683
     11 CL        139.5156  142.0273  170.2253 Cl      1  UNL1       -0.0814
     12 C         141.8246  142.2891  169.0636 C.ar    1  UNL1        0.0697
     13 CL        142.2448  143.2683  170.1194 Cl      1  UNL1       -0.0813
     14 C         142.7691  141.9304  167.9549 C.ar    1  UNL1        0.0314
     15 O         145.3784  141.2611  162.5856 O.3     1  UNL1       -0.4577
     16 C         144.5855  141.5792  161.3526 C.3     1  UNL1        0.2244
     17 C         144.3740  143.0071  160.9446 C.3     1  UNL1        0.1202
     18 N         143.3784  143.8569  161.6772 N.3     1  UNL1       -0.2653
     19 C         142.0190  144.0948  161.0896 C.3     1  UNL1        0.1047
     20 C         141.0235  144.9446  161.8223 C.3     1  UNL1        0.1595
     21 O         141.3874  145.5564  163.1426 O.3     1  UNL1       -0.3508
     22 C         142.7469  145.3186  163.7302 C.3     1  UNL1        0.1595
     23 C         143.7423  144.4688  162.9975 C.3     1  UNL1        0.1047
@<TRIPOS>BOND
     1     1     2    1
     2     2     3   ar
     3     3     4   ar
     4     4    15    1
     5    15    16    1
     6    16    17    1
     7    17    18    1
     8    18    19    1
     9    19    20    1
    10    20    21    1
    11    21    22    1
    12    22    23    1
    13     4     5   ar
    14     5     6   ar
    15     6     7    1
    16     7     8   ar
    17     8     9   ar
    18     9    10   ar
    19    10    11    1
    20    10    12   ar
    21    12    13    1
    22    12    14   ar
    23     6     2   ar
    24    14     7   ar
    25    23    18    1
@<TRIPOS>MOLECULE
*****
 23 25 0 0 0
SMALL
GASTEIGER

@<TRIPOS>ATOM
      1 C         138.4923  144.9133  165.7440 C.3     1  UNL1        0.0523
      2 C         138.5104  143.9811  164.5689 C.ar    1  UNL1        0.0656
      3 C         137.9080  144.2490  163.2216 C.ar    1  UNL1        0.0739
      4 C         138.1594  143.0509  162.3549 C.ar    1  UNL1        0.2434
      5 N         138.9172  142.0424  163.1666 N.ar    1  UNL1       -0.1277
      6 N         139.1341  142.6173  164.5349 N.ar    1  UNL1       -0.2308
      7 C         139.8492  141.9463  165.6699 C.ar    1  UNL1        0.0834
      8 C         139.2616  140.7224  166.3077 C.ar    1  UNL1        0.0201
      9 C         139.9767  140.0514  167.4427 C.ar    1  UNL1        0.0138
     10 C         141.2794  140.6042  167.9400 C.ar    1  UNL1        0.0683
     11 CL        141.9945  139.9332  169.0750 Cl      1  UNL1       -0.0814
     12 C         141.8671  141.8281  167.3022 C.ar    1  UNL1        0.0697
     13 CL        143.1698  142.3810  167.7995 Cl      1  UNL1       -0.0813
     14 C         141.1520  142.4991  166.1672 C.ar    1  UNL1        0.0314
     15 O         137.7286  142.8895  160.9272 O.3     1  UNL1       -0.4577
     16 C         138.4624  141.9422  160.0248 C.3     1  UNL1        0.2244
     17 C         138.0460  140.5031  159.9502 C.3     1  UNL1        0.1202
     18 N         138.7529  139.4737  160.7813 N.3     1  UNL1       -0.2653
     19 C         140.1964  139.1608  160.5195 C.3     1  UNL1        0.1047
     20 C         140.9033  138.1314  161.3506 C.3     1  UNL1        0.1595
     21 O         140.1667  137.4149  162.4433 O.3     1  UNL1       -0.3508
     22 C         138.7233  137.7278  162.7051 C.3     1  UNL1        0.1595
     23 C         138.0164  138.7572  161.8741 C.3     1  UNL1        0.1047
@<TRIPOS>BOND
     1     1     2    1
     2     2     3   ar
     3     3     4   ar
     4     4    15    1
     5    15    16    1
     6    16    17    1
     7    17    18    1
     8    18    19    1
     9    19    20    1
    10    20    21    1
    11    21    22    1
    12    22    23    1
    13     4     5   ar
    14     5     6   ar
    15     6     7    1
    16     7     8   ar
    17     8     9   ar
    18     9    10   ar
    19    10    11    1
    20    10    12   ar
    21    12    13    1
    22    12    14   ar
    23     6     2   ar
    24    14     7   ar
    25    23    18    1
@<TRIPOS>MOLECULE
*****
 23 25 0 0 0
SMALL
GASTEIGER

@<TRIPOS>ATOM
      1 C         143.3186  138.4129  166.3535 C.3     1  UNL1        0.0523
      2 C         142.2436  138.7770  165.3727 C.ar    1  UNL1        0.0656
      3 C         142.1171  138.2589  163.9707 C.ar    1  UNL1        0.0739
      4 C         140.9018  138.8848  163.3532 C.ar    1  UNL1        0.2434
      5 N         140.2773  139.7898  164.3735 N.ar    1  UNL1       -0.1277
      6 N         141.1066  139.7232  165.6216 N.ar    1  UNL1       -0.2308
      7 C         140.8448  140.4714  166.8951 C.ar    1  UNL1        0.0834
      8 C         141.6143  141.7219  167.2019 C.ar    1  UNL1        0.0201
      9 C         141.3525  142.4701  168.4754 C.ar    1  UNL1        0.0138
     10 C         140.3213  141.9677  169.4420 C.ar    1  UNL1        0.0683
     11 CL        140.0596  142.7159  170.7154 Cl      1  UNL1       -0.0814
     12 C         139.5519  140.7172  169.1351 C.ar    1  UNL1        0.0697
     13 CL        138.5206  140.2149  170.1017 Cl      1  UNL1       -0.0813
     14 C         139.8136  139.9691  167.8617 C.ar    1  UNL1        0.0314
     15 O         140.3993  138.6474  161.9600 O.3     1  UNL1       -0.4577
     16 C         139.0754  137.9758  161.7444 C.3     1  UNL1        0.2244
     17 C         137.8327  138.8008  161.5870 C.3     1  UNL1        0.1202
     18 N         137.9317  140.2941  161.4851 N.3     1  UNL1       -0.2653
     19 C         137.5873  141.1510  162.6670 C.3     1  UNL1        0.1047
     20 C         137.6863  142.6442  162.5651 C.3     1  UNL1        0.1595
     21 O         138.1297  143.2806  161.2811 O.3     1  UNL1       -0.3508
     22 C         138.4742  142.4237  160.0992 C.3     1  UNL1        0.1595
     23 C         138.3752  140.9304  160.2012 C.3     1  UNL1        0.1047
@<TRIPOS>BOND
     1     1     2    1
     2     2     3   ar
     3     3     4   ar
     4     4    15    1
     5    15    16    1
     6    16    17    1
     7    17    18    1
     8    18    19    1
     9    19    20    1
    10    20    21    1
    11    21    22    1
    12    22    23    1
    13     4     5   ar
    14     5     6   ar
    15     6     7    1
    16     7     8   ar
    17     8     9   ar
    18     9    10   ar
    19    10    11    1
    20    10    12   ar
    21    12    13    1
    22    12    14   ar
    23     6     2   ar
    24    14     7   ar
    25    23    18    1
@<TRIPOS>MOLECULE
*****
 23 25 0 0 0
SMALL
GASTEIGER

@<TRIPOS>ATOM
      1 C         138.4372  145.1467  165.8349 C.3     1  UNL1        0.0523
      2 C         138.5086  143.9634  164.9157 C.ar    1  UNL1        0.0656
      3 C         137.6269  143.7153  163.7279 C.ar    1  UNL1        0.0739
      4 C         138.0476  142.4191  163.1011 C.ar    1  UNL1        0.2434
      5 N         139.1893  141.8661  163.9016 N.ar    1  UNL1       -0.1277
      6 N         139.4742  142.8206  165.0232 N.ar    1  UNL1       -0.2308
      7 C         140.5379  142.6603  166.0685 C.ar    1  UNL1        0.0834
      8 C         141.9689  142.4729  165.6598 C.ar    1  UNL1        0.0201
      9 C         143.0327  142.3126  166.7051 C.ar    1  UNL1        0.0138
     10 C         142.6654  142.3399  168.1592 C.ar    1  UNL1        0.0683
     11 CL        143.7291  142.1796  169.2046 Cl      1  UNL1       -0.0814
     12 C         141.2344  142.5273  168.5680 C.ar    1  UNL1        0.0697
     13 CL        140.8671  142.5545  170.0221 Cl      1  UNL1       -0.0813
     14 C         140.1707  142.6876  167.5226 C.ar    1  UNL1        0.0314
     15 O         137.4344  141.7869  161.8870 O.3     1  UNL1       -0.4577
     16 C         138.0650  140.5713  161.2747 C.3     1  UNL1        0.2244
     17 C         137.8217  139.2178  161.8737 C.3     1  UNL1        0.1202
     18 N         138.9074  138.5360  162.6524 N.3     1  UNL1       -0.2653
     19 C         140.1478  138.0633  161.9539 C.3     1  UNL1        0.1047
     20 C         141.2335  137.3815  162.7326 C.3     1  UNL1        0.1595
     21 O         141.0788  137.1725  164.2099 O.3     1  UNL1       -0.3508
     22 C         139.8384  137.6452  164.9084 C.3     1  UNL1        0.1595
     23 C         138.7527  138.3269  164.1297 C.3     1  UNL1        0.1047
@<TRIPOS>BOND
     1     1     2    1
     2     2     3   ar
     3     3     4   ar
     4     4    15    1
     5    15    16    1
     6    16    17    1
     7    17    18    1
     8    18    19    1
     9    19    20    1
    10    20    21    1
    11    21    22    1
    12    22    23    1
    13     4     5   ar
    14     5     6   ar
    15     6     7    1
    16     7     8   ar
    17     8     9   ar
    18     9    10   ar
    19    10    11    1
    20    10    12   ar
    21    12    13    1
    22    12    14   ar
    23     6     2   ar
    24    14     7   ar
    25    23    18    1
@<TRIPOS>MOLECULE
*****
 23 25 0 0 0
SMALL
GASTEIGER

@<TRIPOS>ATOM
      1 C         137.5421  143.6990  163.9186 C.3     1  UNL1        0.0523
      2 C         139.0393  143.7637  163.9846 C.ar    1  UNL1        0.0656
      3 C         139.8837  144.9673  163.6877 C.ar    1  UNL1        0.0739
      4 C         141.3212  144.5835  163.8786 C.ar    1  UNL1        0.2434
      5 N         141.3651  143.1426  164.2934 N.ar    1  UNL1       -0.1277
      6 N         139.9548  142.6359  164.3589 N.ar    1  UNL1       -0.2308
      7 C         139.5339  141.2457  164.7330 C.ar    1  UNL1        0.0834
      8 C         139.3254  140.8876  166.1746 C.ar    1  UNL1        0.0201
      9 C         138.9045  139.4973  166.5488 C.ar    1  UNL1        0.0138
     10 C         138.6922  138.4651  165.4813 C.ar    1  UNL1        0.0683
     11 CL        138.2713  137.0748  165.8554 Cl      1  UNL1       -0.0814
     12 C         138.9007  138.8232  164.0396 C.ar    1  UNL1        0.0697
     13 CL        138.6884  137.7910  162.9721 Cl      1  UNL1       -0.0813
     14 C         139.3216  140.2135  163.6655 C.ar    1  UNL1        0.0314
     15 O         142.5065  145.4827  163.6881 O.3     1  UNL1       -0.4577
     16 C         143.8905  144.9045  163.6645 C.3     1  UNL1        0.2244
     17 C         144.3249  144.0456  162.5141 C.3     1  UNL1        0.1202
     18 N         144.4721  142.5641  162.6978 N.3     1  UNL1       -0.2653
     19 C         145.0656  142.0206  163.9636 C.3     1  UNL1        0.1047
     20 C         145.2127  140.5392  164.1472 C.3     1  UNL1        0.1595
     21 O         144.7664  139.6013  163.0650 O.3     1  UNL1       -0.3508
     22 C         144.1729  140.1448  161.7992 C.3     1  UNL1        0.1595
     23 C         144.0258  141.6262  161.6156 C.3     1  UNL1        0.1047
@<TRIPOS>BOND
     1     1     2    1
     2     2     3   ar
     3     3     4   ar
     4     4    15    1
     5    15    16    1
     6    16    17    1
     7    17    18    1
     8    18    19    1
     9    19    20    1
    10    20    21    1
    11    21    22    1
    12    22    23    1
    13     4     5   ar
    14     5     6   ar
    15     6     7    1
    16     7     8   ar
    17     8     9   ar
    18     9    10   ar
    19    10    11    1
    20    10    12   ar
    21    12    13    1
    22    12    14   ar
    23     6     2   ar
    24    14     7   ar
    25    23    18    1
