@<TRIPOS>MOLECULE
*****
 27 29 0 0 0
SMALL
GASTEIGER

@<TRIPOS>ATOM
      1 C         143.1651  139.3782  164.8458 C.ar    1  UNL1        0.1728
      2 N         143.7822  138.6150  165.9801 N.ar    1  UNL1       -0.1407
      3 N         143.2229  138.7478  167.3655 N.ar    1  UNL1       -0.1308
      4 C         142.0465  139.6438  167.6167 C.ar    1  UNL1        0.1772
      5 C         141.4293  140.4070  166.4824 C.ar    1  UNL1        0.0562
      6 C         141.9886  140.2742  165.0970 C.ar    1  UNL1        0.0973
      7 C         143.7244  139.2454  163.4603 C.2     1  UNL1        0.2856
      8 O         143.2809  138.1168  162.5775 O.2     1  UNL1       -0.2666
      9 C         145.4689  141.1132  163.9269 C.3     1  UNL1        0.1389
     10 N         144.7272  140.2412  162.9577 N.am    1  UNL1       -0.1984
     11 N         141.4872  139.7766  169.0022 N.am    1  UNL1       -0.1585
     12 C         140.1773  140.4747  169.2185 C.2     1  UNL1        0.2464
     13 O         138.8916  139.7115  169.0969 O.2     1  UNL1       -0.2730
     14 C         140.1529  141.9359  169.5563 C.3     1  UNL1        0.0786
     15 C         139.8618  143.0395  170.5296 C.3     1  UNL1        0.0096
     16 C         140.4019  143.3632  169.1682 C.3     1  UNL1        0.0096
     17 N         141.3714  141.0374  163.9626 N.pl3   1  UNL1       -0.2094
     18 C         140.2550  142.0033  164.2282 C.ar    1  UNL1        0.0876
     19 C         140.5525  143.3494  164.8192 C.ar    1  UNL1        0.0178
     20 C         139.4359  144.3153  165.0848 C.ar    1  UNL1        0.0014
     21 C         138.0219  143.9350  164.7594 C.ar    1  UNL1        0.0014
     22 C         137.7244  142.5888  164.1683 C.ar    1  UNL1        0.0197
     23 C         138.8409  141.6230  163.9028 C.ar    1  UNL1        0.1209
     24 S         138.5434  140.2768  163.3117 S.O2    1  UNL1        0.0117
     25 C         138.2459  138.9306  162.7207 C.3     1  UNL1        0.1816
     26 O         138.3255  139.7208  164.6878 O.2     1  UNL1       -0.1685
     27 O         138.7613  140.8328  161.9357 O.2     1  UNL1       -0.1685
@<TRIPOS>BOND
     1     9    10    1
     2    10     7   am
     3     7     8    2
     4     7     1    1
     5     1     2   ar
     6     2     3   ar
     7     3     4   ar
     8     4    11    1
     9    11    12   am
    10    12    13    2
    11    12    14    1
    12    14    15    1
    13    15    16    1
    14     4     5   ar
    15     5     6   ar
    16     6    17    1
    17    17    18    1
    18    18    19   ar
    19    19    20   ar
    20    20    21   ar
    21    21    22   ar
    22    22    23   ar
    23    23    24    1
    24    24    25    1
    25    24    26    2
    26    24    27    2
    27     6     1   ar
    28    23    18   ar
    29    16    14    1
@<TRIPOS>MOLECULE
*****
 27 29 0 0 0
SMALL
GASTEIGER

@<TRIPOS>ATOM
      1 C         138.6229  140.1815  164.5348 C.ar    1  UNL1        0.1728
      2 N         137.9738  139.5212  165.7149 N.ar    1  UNL1       -0.1407
      3 N         138.6870  139.4732  167.0336 N.ar    1  UNL1       -0.1308
      4 C         140.0493  140.0855  167.1722 C.ar    1  UNL1        0.1772
      5 C         140.6983  140.7458  165.9922 C.ar    1  UNL1        0.0562
      6 C         139.9851  140.7938  164.6734 C.ar    1  UNL1        0.0973
      7 C         137.9097  140.2295  163.2161 C.2     1  UNL1        0.2856
      8 O         137.0328  141.3991  162.8798 O.2     1  UNL1       -0.2666
      9 C         138.7809  137.8501  162.6424 C.3     1  UNL1        0.1389
     10 N         138.0733  139.1080  162.2336 N.am    1  UNL1       -0.1984
     11 N         140.7625  140.0374  168.4910 N.am    1  UNL1       -0.1585
     12 C         140.1116  140.6064  169.7168 C.2     1  UNL1        0.2464
     13 O         139.4866  139.6910  170.7275 O.2     1  UNL1       -0.2730
     14 C         140.0858  142.0906  169.9319 C.3     1  UNL1        0.0786
     15 C         140.4509  143.4747  169.4838 C.3     1  UNL1        0.0096
     16 C         139.6758  143.2773  170.7527 C.3     1  UNL1        0.0096
     17 N         140.6343  141.4542  163.4933 N.pl3   1  UNL1       -0.2094
     18 C         141.5744  142.6044  163.7008 C.ar    1  UNL1        0.0876
     19 C         143.0287  142.3465  163.9630 C.ar    1  UNL1        0.0178
     20 C         143.9689  143.4968  164.1705 C.ar    1  UNL1        0.0014
     21 C         143.4548  144.9048  164.1157 C.ar    1  UNL1        0.0014
     22 C         142.0006  145.1627  163.8534 C.ar    1  UNL1        0.0197
     23 C         141.0604  144.0125  163.6460 C.ar    1  UNL1        0.1209
     24 S         139.6062  144.2704  163.3837 S.O2    1  UNL1        0.0117
     25 C         138.1520  144.5283  163.1215 C.3     1  UNL1        0.1816
     26 O         139.3439  144.2929  164.8604 O.2     1  UNL1       -0.1685
     27 O         139.8686  144.2480  161.9070 O.2     1  UNL1       -0.1685
@<TRIPOS>BOND
     1     9    10    1
     2    10     7   am
     3     7     8    2
     4     7     1    1
     5     1     2   ar
     6     2     3   ar
     7     3     4   ar
     8     4    11    1
     9    11    12   am
    10    12    13    2
    11    12    14    1
    12    14    15    1
    13    15    16    1
    14     4     5   ar
    15     5     6   ar
    16     6    17    1
    17    17    18    1
    18    18    19   ar
    19    19    20   ar
    20    20    21   ar
    21    21    22   ar
    22    22    23   ar
    23    23    24    1
    24    24    25    1
    25    24    26    2
    26    24    27    2
    27     6     1   ar
    28    23    18   ar
    29    16    14    1
@<TRIPOS>MOLECULE
*****
 27 29 0 0 0
SMALL
GASTEIGER

@<TRIPOS>ATOM
      1 C         138.9154  138.2807  164.4967 C.ar    1  UNL1        0.1728
      2 N         138.2785  137.3420  165.4781 N.ar    1  UNL1       -0.1407
      3 N         138.0946  137.7615  166.9064 N.ar    1  UNL1       -0.1308
      4 C         138.5477  139.1197  167.3534 C.ar    1  UNL1        0.1772
      5 C         139.1847  140.0584  166.3721 C.ar    1  UNL1        0.0562
      6 C         139.3685  139.6389  164.9437 C.ar    1  UNL1        0.0973
      7 C         139.0993  137.8611  163.0684 C.2     1  UNL1        0.2856
      8 O         140.4022  137.2659  162.6233 O.2     1  UNL1       -0.2666
      9 C         137.8082  139.3443  161.3704 C.3     1  UNL1        0.1389
     10 N         137.9803  138.0368  162.0851 N.am    1  UNL1       -0.1984
     11 N         138.3638  139.5392  168.7818 N.am    1  UNL1       -0.1585
     12 C         139.4412  140.3145  169.4804 C.2     1  UNL1        0.2464
     13 O         139.0869  141.5215  170.2977 O.2     1  UNL1       -0.2730
     14 C         140.8729  139.8830  169.3617 C.3     1  UNL1        0.0786
     15 C         142.1395  139.7892  168.5638 C.3     1  UNL1        0.0096
     16 C         142.0859  139.2293  169.9543 C.3     1  UNL1        0.0096
     17 N         140.0055  140.5777  163.9624 N.pl3   1  UNL1       -0.2094
     18 C         139.6364  142.0315  163.9671 C.ar    1  UNL1        0.0876
     19 C         138.2674  142.4591  163.5276 C.ar    1  UNL1        0.0178
     20 C         137.8983  143.9130  163.5324 C.ar    1  UNL1        0.0014
     21 C         138.8981  144.9392  163.9766 C.ar    1  UNL1        0.0014
     22 C         140.2670  144.5116  164.4160 C.ar    1  UNL1        0.0197
     23 C         140.6362  143.0578  164.4113 C.ar    1  UNL1        0.1209
     24 S         142.0051  142.6302  164.8508 S.O2    1  UNL1        0.0117
     25 C         143.3741  142.2025  165.2902 C.3     1  UNL1        0.1816
     26 O         141.5342  142.5855  166.2742 O.2     1  UNL1       -0.1685
     27 O         142.4760  142.6748  163.4273 O.2     1  UNL1       -0.1685
@<TRIPOS>BOND
     1     9    10    1
     2    10     7   am
     3     7     8    2
     4     7     1    1
     5     1     2   ar
     6     2     3   ar
     7     3     4   ar
     8     4    11    1
     9    11    12   am
    10    12    13    2
    11    12    14    1
    12    14    15    1
    13    15    16    1
    14     4     5   ar
    15     5     6   ar
    16     6    17    1
    17    17    18    1
    18    18    19   ar
    19    19    20   ar
    20    20    21   ar
    21    21    22   ar
    22    22    23   ar
    23    23    24    1
    24    24    25    1
    25    24    26    2
    26    24    27    2
    27     6     1   ar
    28    23    18   ar
    29    16    14    1
@<TRIPOS>MOLECULE
*****
 27 29 0 0 0
SMALL
GASTEIGER

@<TRIPOS>ATOM
      1 C         138.7296  139.9735  164.9984 C.ar    1  UNL1        0.1728
      2 N         138.0173  139.3492  166.1614 N.ar    1  UNL1       -0.1407
      3 N         138.6808  139.2941  167.5056 N.ar    1  UNL1       -0.1308
      4 C         140.0567  139.8634  167.6866 C.ar    1  UNL1        0.1772
      5 C         140.7690  140.4877  166.5236 C.ar    1  UNL1        0.0562
      6 C         140.1055  140.5427  165.1795 C.ar    1  UNL1        0.0973
      7 C         138.0661  140.0286  163.6542 C.2     1  UNL1        0.2856
      8 O         137.2081  141.2034  163.2889 O.2     1  UNL1       -0.2666
      9 C         138.9734  137.6585  163.0980 C.3     1  UNL1        0.1389
     10 N         138.2606  138.9088  162.6754 N.am    1  UNL1       -0.1984
     11 N         140.7202  139.8083  169.0308 N.am    1  UNL1       -0.1585
     12 C         142.2159  139.8593  169.1315 C.2     1  UNL1        0.2464
     13 O         143.0051  138.5872  169.2257 O.2     1  UNL1       -0.2730
     14 C         142.9225  141.1825  169.1380 C.3     1  UNL1        0.0786
     15 C         143.3455  142.4327  168.4254 C.3     1  UNL1        0.0096
     16 C         143.7232  142.2239  169.8619 C.3     1  UNL1        0.0096
     17 N         140.8180  141.1671  164.0164 N.pl3   1  UNL1       -0.2094
     18 C         142.2545  141.5777  164.1495 C.ar    1  UNL1        0.0876
     19 C         142.6019  142.9066  164.7522 C.ar    1  UNL1        0.0178
     20 C         144.0385  143.3173  164.8853 C.ar    1  UNL1        0.0014
     21 C         145.1276  142.3990  164.4157 C.ar    1  UNL1        0.0014
     22 C         144.7802  141.0701  163.8129 C.ar    1  UNL1        0.0197
     23 C         143.3437  140.6594  163.6798 C.ar    1  UNL1        0.1209
     24 S         142.9963  139.3305  163.0771 S.O2    1  UNL1        0.0117
     25 C         142.6489  138.0016  162.4744 C.3     1  UNL1        0.1816
     26 O         143.0783  138.6941  164.4329 O.2     1  UNL1       -0.1685
     27 O         142.9143  139.9669  161.7213 O.2     1  UNL1       -0.1685
@<TRIPOS>BOND
     1     9    10    1
     2    10     7   am
     3     7     8    2
     4     7     1    1
     5     1     2   ar
     6     2     3   ar
     7     3     4   ar
     8     4    11    1
     9    11    12   am
    10    12    13    2
    11    12    14    1
    12    14    15    1
    13    15    16    1
    14     4     5   ar
    15     5     6   ar
    16     6    17    1
    17    17    18    1
    18    18    19   ar
    19    19    20   ar
    20    20    21   ar
    21    21    22   ar
    22    22    23   ar
    23    23    24    1
    24    24    25    1
    25    24    26    2
    26    24    27    2
    27     6     1   ar
    28    23    18   ar
    29    16    14    1
@<TRIPOS>MOLECULE
*****
 27 29 0 0 0
SMALL
GASTEIGER

@<TRIPOS>ATOM
      1 C         138.9226  139.7131  165.1671 C.ar    1  UNL1        0.1728
      2 N         138.1250  139.1951  166.3270 N.ar    1  UNL1       -0.1407
      3 N         138.6789  139.2852  167.7181 N.ar    1  UNL1       -0.1308
      4 C         140.0304  139.8933  167.9492 C.ar    1  UNL1        0.1772
      5 C         140.8280  140.4114  166.7894 C.ar    1  UNL1        0.0562
      6 C         140.2741  140.3213  165.3983 C.ar    1  UNL1        0.0973
      7 C         138.3687  139.6230  163.7760 C.2     1  UNL1        0.2856
      8 O         137.6904  140.8108  163.1604 O.2     1  UNL1       -0.2666
      9 C         139.8362  137.7000  162.8283 C.3     1  UNL1        0.1389
     10 N         138.4930  138.3451  163.0005 N.am    1  UNL1       -0.1984
     11 N         140.5843  139.9834  169.3403 N.am    1  UNL1       -0.1585
     12 C         142.0637  140.1120  169.5516 C.2     1  UNL1        0.2464
     13 O         142.9285  138.8864  169.5669 O.2     1  UNL1       -0.2730
     14 C         142.6784  141.4662  169.7476 C.3     1  UNL1        0.0786
     15 C         143.8898  142.3501  169.7828 C.3     1  UNL1        0.0096
     16 C         142.5318  142.9276  170.0520 C.3     1  UNL1        0.0096
     17 N         141.0718  140.8394  164.2384 N.pl3   1  UNL1       -0.2094
     18 C         141.3311  142.3106  164.1039 C.ar    1  UNL1        0.0876
     19 C         140.1843  143.2775  164.1060 C.ar    1  UNL1        0.0178
     20 C         140.4436  144.7489  163.9715 C.ar    1  UNL1        0.0014
     21 C         141.8496  145.2532  163.8350 C.ar    1  UNL1        0.0014
     22 C         142.9964  144.2863  163.8329 C.ar    1  UNL1        0.0197
     23 C         142.7371  142.8151  163.9674 C.ar    1  UNL1        0.1209
     24 S         143.8839  141.8482  163.9653 S.O2    1  UNL1        0.0117
     25 C         145.0307  140.8812  163.9632 C.3     1  UNL1        0.1816
     26 O         143.8015  141.7536  162.4705 O.2     1  UNL1       -0.1685
     27 O         143.9663  141.9427  165.4600 O.2     1  UNL1       -0.1685
@<TRIPOS>BOND
     1     9    10    1
     2    10     7   am
     3     7     8    2
     4     7     1    1
     5     1     2   ar
     6     2     3   ar
     7     3     4   ar
     8     4    11    1
     9    11    12   am
    10    12    13    2
    11    12    14    1
    12    14    15    1
    13    15    16    1
    14     4     5   ar
    15     5     6   ar
    16     6    17    1
    17    17    18    1
    18    18    19   ar
    19    19    20   ar
    20    20    21   ar
    21    21    22   ar
    22    22    23   ar
    23    23    24    1
    24    24    25    1
    25    24    26    2
    26    24    27    2
    27     6     1   ar
    28    23    18   ar
    29    16    14    1
@<TRIPOS>MOLECULE
*****
 27 29 0 0 0
SMALL
GASTEIGER

@<TRIPOS>ATOM
      1 C         142.9919  139.0427  165.3068 C.ar    1  UNL1        0.1728
      2 N         143.6534  138.1679  166.3300 N.ar    1  UNL1       -0.1407
      3 N         143.4402  138.4302  167.7915 N.ar    1  UNL1       -0.1308
      4 C         142.5656  139.5673  168.2296 C.ar    1  UNL1        0.1772
      5 C         141.9042  140.4421  167.2064 C.ar    1  UNL1        0.0562
      6 C         142.1173  140.1798  165.7449 C.ar    1  UNL1        0.0973
      7 C         143.2051  138.7805  163.8453 C.2     1  UNL1        0.2856
      8 O         144.4415  139.2883  163.1647 O.2     1  UNL1       -0.2666
      9 C         141.1957  137.1349  163.7795 C.3     1  UNL1        0.1389
     10 N         142.1818  138.0103  163.0645 N.am    1  UNL1       -0.1984
     11 N         142.3525  139.8296  169.6911 N.am    1  UNL1       -0.1585
     12 C         141.0582  140.4204  170.1661 C.2     1  UNL1        0.2464
     13 O         139.9596  139.5242  170.6558 O.2     1  UNL1       -0.2730
     14 C         140.8625  141.9075  170.1513 C.3     1  UNL1        0.0786
     15 C         141.4070  143.2873  169.9282 C.3     1  UNL1        0.0096
     16 C         139.9790  143.1035  170.3489 C.3     1  UNL1        0.0096
     17 N         141.4558  141.0548  164.7216 N.pl3   1  UNL1       -0.2094
     18 C         142.0114  142.4166  164.4275 C.ar    1  UNL1        0.0876
     19 C         143.4941  142.6135  164.3148 C.ar    1  UNL1        0.0178
     20 C         144.0496  143.9755  164.0206 C.ar    1  UNL1        0.0014
     21 C         143.1224  145.1405  163.8392 C.ar    1  UNL1        0.0014
     22 C         141.6397  144.9436  163.9518 C.ar    1  UNL1        0.0197
     23 C         141.0841  143.5818  164.2460 C.ar    1  UNL1        0.1209
     24 S         139.6014  143.3849  164.3587 S.O2    1  UNL1        0.0117
     25 C         138.1186  143.1880  164.4713 C.3     1  UNL1        0.1816
     26 O         139.6765  143.6618  165.8310 O.2     1  UNL1       -0.1685
     27 O         139.5263  143.1080  162.8864 O.2     1  UNL1       -0.1685
@<TRIPOS>BOND
     1     9    10    1
     2    10     7   am
     3     7     8    2
     4     7     1    1
     5     1     2   ar
     6     2     3   ar
     7     3     4   ar
     8     4    11    1
     9    11    12   am
    10    12    13    2
    11    12    14    1
    12    14    15    1
    13    15    16    1
    14     4     5   ar
    15     5     6   ar
    16     6    17    1
    17    17    18    1
    18    18    19   ar
    19    19    20   ar
    20    20    21   ar
    21    21    22   ar
    22    22    23   ar
    23    23    24    1
    24    24    25    1
    25    24    26    2
    26    24    27    2
    27     6     1   ar
    28    23    18   ar
    29    16    14    1
@<TRIPOS>MOLECULE
*****
 27 29 0 0 0
SMALL
GASTEIGER

@<TRIPOS>ATOM
      1 C         138.8042  139.3047  165.6969 C.ar    1  UNL1        0.1728
      2 N         137.9195  138.5875  166.6731 N.ar    1  UNL1       -0.1407
      3 N         138.0005  138.9099  168.1358 N.ar    1  UNL1       -0.1308
      4 C         138.9662  139.9493  168.6224 C.ar    1  UNL1        0.1772
      5 C         139.8510  140.6664  167.6462 C.ar    1  UNL1        0.0562
      6 C         139.7700  140.3441  166.1835 C.ar    1  UNL1        0.0973
      7 C         138.7232  138.9823  164.2342 C.2     1  UNL1        0.2856
      8 O         137.9146  139.8523  163.3182 O.2     1  UNL1       -0.2666
      9 C         139.9896  137.8170  162.2879 C.3     1  UNL1        0.1389
     10 N         139.4508  137.7900  163.6876 N.am    1  UNL1       -0.1984
     11 N         139.0472  140.2716  170.0851 N.am    1  UNL1       -0.1585
     12 C         140.3846  140.4426  170.7425 C.2     1  UNL1        0.2464
     13 O         140.5038  141.2491  172.0017 O.2     1  UNL1       -0.2730
     14 C         141.6028  139.8070  170.1408 C.3     1  UNL1        0.0786
     15 C         142.5271  138.6325  170.0146 C.3     1  UNL1        0.0096
     16 C         142.7883  139.8807  169.2249 C.3     1  UNL1        0.0096
     17 N         140.6548  141.0613  165.2074 N.pl3   1  UNL1       -0.2094
     18 C         142.0541  140.5772  164.9675 C.ar    1  UNL1        0.0876
     19 C         142.5078  139.2737  165.5550 C.ar    1  UNL1        0.0178
     20 C         143.9071  138.7896  165.3151 C.ar    1  UNL1        0.0014
     21 C         144.8527  139.6089  164.4878 C.ar    1  UNL1        0.0014
     22 C         144.3990  140.9124  163.9003 C.ar    1  UNL1        0.0197
     23 C         142.9997  141.3965  164.1401 C.ar    1  UNL1        0.1209
     24 S         142.5460  142.7000  163.5526 S.O2    1  UNL1        0.0117
     25 C         142.0923  144.0034  162.9651 C.3     1  UNL1        0.1816
     26 O         142.0826  141.9828  162.3194 O.2     1  UNL1       -0.1685
     27 O         143.0094  143.4171  164.7859 O.2     1  UNL1       -0.1685
@<TRIPOS>BOND
     1     9    10    1
     2    10     7   am
     3     7     8    2
     4     7     1    1
     5     1     2   ar
     6     2     3   ar
     7     3     4   ar
     8     4    11    1
     9    11    12   am
    10    12    13    2
    11    12    14    1
    12    14    15    1
    13    15    16    1
    14     4     5   ar
    15     5     6   ar
    16     6    17    1
    17    17    18    1
    18    18    19   ar
    19    19    20   ar
    20    20    21   ar
    21    21    22   ar
    22    22    23   ar
    23    23    24    1
    24    24    25    1
    25    24    26    2
    26    24    27    2
    27     6     1   ar
    28    23    18   ar
    29    16    14    1
@<TRIPOS>MOLECULE
*****
 27 29 0 0 0
SMALL
GASTEIGER

@<TRIPOS>ATOM
      1 C         139.1135  139.5091  163.0258 C.ar    1  UNL1        0.1728
      2 N         137.6994  139.8901  162.7019 N.ar    1  UNL1       -0.1407
      3 N         137.3755  141.2980  162.2985 N.ar    1  UNL1       -0.1308
      4 C         138.4659  142.3250  162.2189 C.ar    1  UNL1        0.1772
      5 C         139.8801  141.9441  162.5427 C.ar    1  UNL1        0.0562
      6 C         140.2039  140.5361  162.9462 C.ar    1  UNL1        0.0973
      7 C         139.4374  138.1011  163.4293 C.2     1  UNL1        0.2856
      8 O         140.2401  137.2246  162.5144 O.2     1  UNL1       -0.2666
      9 C         138.6131  138.5178  165.8576 C.3     1  UNL1        0.1389
     10 N         138.9584  137.5698  164.7476 N.am    1  UNL1       -0.1984
     11 N         138.1421  143.7330  161.8154 N.am    1  UNL1       -0.1585
     12 C         138.7462  144.8850  162.5623 C.2     1  UNL1        0.2464
     13 O         139.1259  146.1376  161.8295 O.2     1  UNL1       -0.2730
     14 C         138.9706  144.7845  164.0420 C.3     1  UNL1        0.0786
     15 C         139.8620  144.4493  165.2008 C.3     1  UNL1        0.0096
     16 C         138.4679  144.9457  165.4460 C.3     1  UNL1        0.0096
     17 N         141.6181  140.1552  163.2701 N.pl3   1  UNL1       -0.2094
     18 C         142.5366  141.1545  163.9084 C.ar    1  UNL1        0.0876
     19 C         142.3631  141.5165  165.3537 C.ar    1  UNL1        0.0178
     20 C         143.2817  142.5160  165.9921 C.ar    1  UNL1        0.0014
     21 C         144.3737  143.1534  165.1852 C.ar    1  UNL1        0.0014
     22 C         144.5472  142.7914  163.7399 C.ar    1  UNL1        0.0197
     23 C         143.6287  141.7920  163.1015 C.ar    1  UNL1        0.1209
     24 S         143.8022  141.4300  161.6562 S.O2    1  UNL1        0.0117
     25 C         143.9758  141.0680  160.2109 C.3     1  UNL1        0.1816
     26 O         142.9701  142.6134  161.2599 O.2     1  UNL1       -0.1685
     27 O         144.6344  140.2466  162.0525 O.2     1  UNL1       -0.1685
@<TRIPOS>BOND
     1     9    10    1
     2    10     7   am
     3     7     8    2
     4     7     1    1
     5     1     2   ar
     6     2     3   ar
     7     3     4   ar
     8     4    11    1
     9    11    12   am
    10    12    13    2
    11    12    14    1
    12    14    15    1
    13    15    16    1
    14     4     5   ar
    15     5     6   ar
    16     6    17    1
    17    17    18    1
    18    18    19   ar
    19    19    20   ar
    20    20    21   ar
    21    21    22   ar
    22    22    23   ar
    23    23    24    1
    24    24    25    1
    25    24    26    2
    26    24    27    2
    27     6     1   ar
    28    23    18   ar
    29    16    14    1
@<TRIPOS>MOLECULE
*****
 27 29 0 0 0
SMALL
GASTEIGER

@<TRIPOS>ATOM
      1 C         143.5897  142.2251  163.7852 C.ar    1  UNL1        0.1728
      2 N         144.5019  141.2737  164.5012 N.ar    1  UNL1       -0.1407
      3 N         144.0199  139.8994  164.8605 N.ar    1  UNL1       -0.1308
      4 C         142.6257  139.4766  164.5039 C.ar    1  UNL1        0.1772
      5 C         141.7135  140.4280  163.7879 C.ar    1  UNL1        0.0562
      6 C         142.1955  141.8022  163.4286 C.ar    1  UNL1        0.0973
      7 C         144.0718  143.5993  163.4259 C.2     1  UNL1        0.2856
      8 O         144.0306  144.6989  164.4453 O.2     1  UNL1       -0.2666
      9 C         144.7323  142.7530  161.0601 C.3     1  UNL1        0.1389
     10 N         144.5949  143.8740  162.0472 N.am    1  UNL1       -0.1984
     11 N         142.1436  138.1024  164.8632 N.am    1  UNL1       -0.1585
     12 C         140.8605  137.5828  164.2856 C.2     1  UNL1        0.2464
     13 O         140.8721  136.8336  162.9861 O.2     1  UNL1       -0.2730
     14 C         139.5658  137.8123  165.0075 C.3     1  UNL1        0.0786
     15 C         138.3886  137.2753  165.7661 C.3     1  UNL1        0.0096
     16 C         138.5007  138.7470  165.4990 C.3     1  UNL1        0.0096
     17 N         141.2832  142.7537  162.7126 N.pl3   1  UNL1       -0.2094
     18 C         140.0815  143.3125  163.4151 C.ar    1  UNL1        0.0876
     19 C         140.2559  144.1642  164.6374 C.ar    1  UNL1        0.0178
     20 C         139.0541  144.7231  165.3399 C.ar    1  UNL1        0.0014
     21 C         137.6779  144.4302  164.8200 C.ar    1  UNL1        0.0014
     22 C         137.5035  143.5784  163.5977 C.ar    1  UNL1        0.0197
     23 C         138.7052  143.0196  162.8952 C.ar    1  UNL1        0.1209
     24 S         138.5307  142.1679  161.6729 S.O2    1  UNL1        0.0117
     25 C         138.3563  141.3161  160.4505 C.3     1  UNL1        0.1816
     26 O         138.4869  140.9406  162.5343 O.2     1  UNL1       -0.1685
     27 O         138.5746  143.3951  160.8115 O.2     1  UNL1       -0.1685
@<TRIPOS>BOND
     1     9    10    1
     2    10     7   am
     3     7     8    2
     4     7     1    1
     5     1     2   ar
     6     2     3   ar
     7     3     4   ar
     8     4    11    1
     9    11    12   am
    10    12    13    2
    11    12    14    1
    12    14    15    1
    13    15    16    1
    14     4     5   ar
    15     5     6   ar
    16     6    17    1
    17    17    18    1
    18    18    19   ar
    19    19    20   ar
    20    20    21   ar
    21    21    22   ar
    22    22    23   ar
    23    23    24    1
    24    24    25    1
    25    24    26    2
    26    24    27    2
    27     6     1   ar
    28    23    18   ar
    29    16    14    1
