@<TRIPOS>MOLECULE
*****
 27 29 0 0 0
SMALL
GASTEIGER

@<TRIPOS>ATOM
      1 C         140.6935  145.5174  162.3202 C.3     1  UNL1        0.0066
      2 C         139.9004  144.4217  162.9684 C.3     1  UNL1        0.0454
      3 C         140.4405  143.7204  164.1795 C.ar    1  UNL1       -0.0207
      4 C         139.6442  143.6977  165.4504 C.ar    1  UNL1       -0.0042
      5 C         140.1843  142.9965  166.6614 C.ar    1  UNL1       -0.0003
      6 C         141.5208  142.3179  166.6014 C.ar    1  UNL1       -0.0000
      7 C         142.3170  142.3407  165.3304 C.ar    1  UNL1       -0.0003
      8 C         141.7769  143.0419  164.1195 C.ar    1  UNL1       -0.0042
      9 C         142.0609  141.6166  167.8124 C.ar    1  UNL1        0.0001
     10 C         142.9848  142.3389  168.7476 C.ar    1  UNL1        0.0023
     11 C         143.5250  141.6377  169.9586 C.ar    1  UNL1        0.0296
     12 C         143.1411  140.2141  170.2344 C.ar    1  UNL1        0.1401
     13 F         143.6811  139.5128  171.4454 F       1  UNL1       -0.2042
     14 C         142.2171  139.4918  169.2992 C.ar    1  UNL1        0.0296
     15 C         141.6770  140.1931  168.0882 C.ar    1  UNL1        0.0023
     16 C         138.5671  144.0272  162.4057 C.3     1  UNL1        0.1325
     17 N         137.3330  144.7832  162.8003 N.3     1  UNL1       -0.3148
     18 H         137.5836  145.5264  163.4524 H       1  UNL1        0.1192
     19 H         136.6729  144.1470  163.2473 H       1  UNL1        0.1192
     20 C         138.4678  142.8768  161.4483 C.2     1  UNL1        0.2401
     21 O         138.5677  143.1193  159.9714 O.2     1  UNL1       -0.2734
     22 N         138.2685  141.4838  161.9678 N.am    1  UNL1       -0.2756
     23 C         138.1511  141.0891  163.4102 C.3     1  UNL1        0.0964
     24 C         137.9617  139.6023  163.4700 C.3     1  UNL1        0.0585
     25 C         137.9621  139.0781  162.0645 C.3     1  UNL1        0.1824
     26 F         137.8011  137.6430  161.6587 F       1  UNL1       -0.2354
     27 C         138.1517  140.2409  161.1362 C.3     1  UNL1        0.1286
@<TRIPOS>BOND
     1     2     1    1
     2     2     3    1
     3     3     4   ar
     4     4     5   ar
     5     5     6   ar
     6     6     9    1
     7     9    10   ar
     8    10    11   ar
     9    11    12   ar
    10    12    13    1
    11    12    14   ar
    12    14    15   ar
    13     6     7   ar
    14     7     8   ar
    15     2    16    1
    16    16    17    1
    17    16    20    1
    18    20    21    2
    19    20    22   am
    20    22    23    1
    21    23    24    1
    22    24    25    1
    23    25    26    1
    24    25    27    1
    25     8     3   ar
    26    27    22    1
    27    15     9   ar
    28    17    18    1
    29    17    19    1
@<TRIPOS>MOLECULE
*****
 27 29 0 0 0
SMALL
GASTEIGER

@<TRIPOS>ATOM
      1 C         138.7996  137.6524  162.8555 C.3     1  UNL1        0.0066
      2 C         138.8860  139.1481  162.9292 C.3     1  UNL1        0.0454
      3 C         139.5117  139.8053  164.1237 C.ar    1  UNL1       -0.0207
      4 C         140.9505  140.2270  164.0798 C.ar    1  UNL1       -0.0042
      5 C         141.5761  140.8842  165.2742 C.ar    1  UNL1       -0.0003
      6 C         140.7629  141.1197  166.5125 C.ar    1  UNL1       -0.0000
      7 C         139.3241  140.6979  166.5563 C.ar    1  UNL1       -0.0003
      8 C         138.6985  140.0408  165.3619 C.ar    1  UNL1       -0.0042
      9 C         141.3886  141.7769  167.7070 C.ar    1  UNL1        0.0001
     10 C         142.8294  141.5199  168.0355 C.ar    1  UNL1        0.0023
     11 C         143.4551  142.1771  169.2300 C.ar    1  UNL1        0.0296
     12 C         142.6399  143.0913  170.0958 C.ar    1  UNL1        0.1401
     13 F         143.2655  143.7485  171.2902 F       1  UNL1       -0.2042
     14 C         141.1990  143.3483  169.7672 C.ar    1  UNL1        0.0296
     15 C         140.5734  142.6911  168.5728 C.ar    1  UNL1        0.0023
     16 C         138.3467  139.9866  161.8085 C.3     1  UNL1        0.1325
     17 N         137.0272  139.6436  161.1829 N.3     1  UNL1       -0.3148
     18 H         136.6389  138.8181  161.6393 H       1  UNL1        0.1192
     19 H         137.1611  139.4518  160.1901 H       1  UNL1        0.1192
     20 C         139.1269  141.1681  161.3133 C.2     1  UNL1        0.2401
     21 O         140.1697  140.9863  160.2504 O.2     1  UNL1       -0.2734
     22 N         138.8644  142.5316  161.8808 N.am    1  UNL1       -0.2756
     23 C         137.8586  142.8661  162.9422 C.3     1  UNL1        0.0964
     24 C         137.9341  144.3411  163.2041 C.3     1  UNL1        0.0585
     25 C         138.9866  144.9183  162.3045 C.3     1  UNL1        0.1824
     26 F         139.3929  146.3605  162.2349 F       1  UNL1       -0.2354
     27 C         139.5615  143.7999  161.4867 C.3     1  UNL1        0.1286
@<TRIPOS>BOND
     1     2     1    1
     2     2     3    1
     3     3     4   ar
     4     4     5   ar
     5     5     6   ar
     6     6     9    1
     7     9    10   ar
     8    10    11   ar
     9    11    12   ar
    10    12    13    1
    11    12    14   ar
    12    14    15   ar
    13     6     7   ar
    14     7     8   ar
    15     2    16    1
    16    16    17    1
    17    16    20    1
    18    20    21    2
    19    20    22   am
    20    22    23    1
    21    23    24    1
    22    24    25    1
    23    25    26    1
    24    25    27    1
    25     8     3   ar
    26    27    22    1
    27    15     9   ar
    28    17    18    1
    29    17    19    1
@<TRIPOS>MOLECULE
*****
 27 29 0 0 0
SMALL
GASTEIGER

@<TRIPOS>ATOM
      1 C         138.9021  137.6134  163.1000 C.3     1  UNL1        0.0066
      2 C         138.7644  139.0967  163.2751 C.3     1  UNL1        0.0454
      3 C         139.4258  139.7795  164.4355 C.ar    1  UNL1       -0.0207
      4 C         140.7582  140.4443  164.2545 C.ar    1  UNL1       -0.0042
      5 C         141.4194  141.1270  165.4149 C.ar    1  UNL1       -0.0003
      6 C         140.7483  141.1451  166.7563 C.ar    1  UNL1       -0.0000
      7 C         139.4159  140.4803  166.9373 C.ar    1  UNL1       -0.0003
      8 C         138.7547  139.7976  165.7769 C.ar    1  UNL1       -0.0042
      9 C         141.4097  141.8279  167.9167 C.ar    1  UNL1        0.0001
     10 C         140.6233  142.7684  168.7809 C.ar    1  UNL1        0.0023
     11 C         141.2847  143.4512  169.9413 C.ar    1  UNL1        0.0296
     12 C         142.7324  143.1934  170.2374 C.ar    1  UNL1        0.1401
     13 F         143.3937  143.8762  171.3978 F       1  UNL1       -0.2042
     14 C         143.5187  142.2528  169.3731 C.ar    1  UNL1        0.0296
     15 C         142.8574  141.5701  168.2128 C.ar    1  UNL1        0.0023
     16 C         137.9654  139.8973  162.2899 C.3     1  UNL1        0.1325
     17 N         137.1962  139.2014  161.2064 N.3     1  UNL1       -0.3148
     18 H         137.3286  138.1934  161.2890 H       1  UNL1        0.1192
     19 H         137.5322  139.5149  160.2958 H       1  UNL1        0.1192
     20 C         137.9356  141.3938  162.3882 C.2     1  UNL1        0.2401
     21 O         136.8850  142.0701  163.2183 O.2     1  UNL1       -0.2734
     22 N         138.9564  142.2140  161.6565 N.am    1  UNL1       -0.2756
     23 C         140.0610  141.6812  160.7928 C.3     1  UNL1        0.0964
     24 C         140.8390  142.8489  160.2625 C.3     1  UNL1        0.0585
     25 C         140.2153  144.1033  160.7985 C.3     1  UNL1        0.1824
     26 F         140.6744  145.5042  160.5216 F       1  UNL1       -0.2354
     27 C         139.0517  143.7109  161.6601 C.3     1  UNL1        0.1286
@<TRIPOS>BOND
     1     2     1    1
     2     2     3    1
     3     3     4   ar
     4     4     5   ar
     5     5     6   ar
     6     6     9    1
     7     9    10   ar
     8    10    11   ar
     9    11    12   ar
    10    12    13    1
    11    12    14   ar
    12    14    15   ar
    13     6     7   ar
    14     7     8   ar
    15     2    16    1
    16    16    17    1
    17    16    20    1
    18    20    21    2
    19    20    22   am
    20    22    23    1
    21    23    24    1
    22    24    25    1
    23    25    26    1
    24    25    27    1
    25     8     3   ar
    26    27    22    1
    27    15     9   ar
    28    17    18    1
    29    17    19    1
@<TRIPOS>MOLECULE
*****
 27 29 0 0 0
SMALL
GASTEIGER

@<TRIPOS>ATOM
      1 C         137.7317  144.1293  162.8741 C.3     1  UNL1        0.0066
      2 C         139.2098  144.2463  163.1005 C.3     1  UNL1        0.0454
      3 C         139.8433  143.5728  164.2818 C.ar    1  UNL1       -0.0207
      4 C         140.8688  142.4985  164.0717 C.ar    1  UNL1       -0.0042
      5 C         141.5022  141.8251  165.2529 C.ar    1  UNL1       -0.0003
      6 C         141.1101  142.2260  166.6442 C.ar    1  UNL1       -0.0000
      7 C         140.0846  143.3004  166.8542 C.ar    1  UNL1       -0.0003
      8 C         139.4512  143.9738  165.6730 C.ar    1  UNL1       -0.0042
      9 C         141.7436  141.5526  167.8254 C.ar    1  UNL1        0.0001
     10 C         141.3466  140.1536  168.1931 C.ar    1  UNL1        0.0023
     11 C         141.9801  139.4801  169.3743 C.ar    1  UNL1        0.0296
     12 C         143.0105  140.2057  170.1878 C.ar    1  UNL1        0.1401
     13 F         143.6439  139.5323  171.3690 F       1  UNL1       -0.2042
     14 C         143.4074  141.6048  169.8201 C.ar    1  UNL1        0.0296
     15 C         142.7739  142.2782  168.6389 C.ar    1  UNL1        0.0023
     16 C         140.0546  145.0367  162.1458 C.3     1  UNL1        0.1325
     17 N         140.4482  146.4448  162.4814 N.3     1  UNL1       -0.3148
     18 H         140.0577  146.6999  163.3885 H       1  UNL1        0.1192
     19 H         140.0893  147.0777  161.7665 H       1  UNL1        0.1192
     20 C         140.5058  144.4192  160.8554 C.2     1  UNL1        0.2401
     21 O         139.5759  144.3756  159.6792 O.2     1  UNL1       -0.2734
     22 N         141.8869  143.8451  160.7412 N.am    1  UNL1       -0.2756
     23 C         142.9223  143.8165  161.8262 C.3     1  UNL1        0.0964
     24 C         144.1504  143.1526  161.2775 C.3     1  UNL1        0.0585
     25 C         143.8740  142.7709  159.8535 C.3     1  UNL1        0.1824
     26 F         144.8289  142.0822  158.9240 F       1  UNL1       -0.2354
     27 C         142.4751  143.1989  159.5221 C.3     1  UNL1        0.1286
@<TRIPOS>BOND
     1     2     1    1
     2     2     3    1
     3     3     4   ar
     4     4     5   ar
     5     5     6   ar
     6     6     9    1
     7     9    10   ar
     8    10    11   ar
     9    11    12   ar
    10    12    13    1
    11    12    14   ar
    12    14    15   ar
    13     6     7   ar
    14     7     8   ar
    15     2    16    1
    16    16    17    1
    17    16    20    1
    18    20    21    2
    19    20    22   am
    20    22    23    1
    21    23    24    1
    22    24    25    1
    23    25    26    1
    24    25    27    1
    25     8     3   ar
    26    27    22    1
    27    15     9   ar
    28    17    18    1
    29    17    19    1
@<TRIPOS>MOLECULE
*****
 27 29 0 0 0
SMALL
GASTEIGER

@<TRIPOS>ATOM
      1 C         138.7493  138.2488  162.7931 C.3     1  UNL1        0.0066
      2 C         138.5537  139.6943  163.1427 C.3     1  UNL1        0.0454
      3 C         139.2531  140.2793  164.3338 C.ar    1  UNL1       -0.0207
      4 C         139.4798  139.4410  165.5568 C.ar    1  UNL1       -0.0042
      5 C         140.1792  140.0259  166.7479 C.ar    1  UNL1       -0.0003
      6 C         140.6518  141.4492  166.7159 C.ar    1  UNL1       -0.0000
      7 C         140.4250  142.2875  165.4929 C.ar    1  UNL1       -0.0003
      8 C         139.7257  141.7025  164.3018 C.ar    1  UNL1       -0.0042
      9 C         141.3512  142.0341  167.9071 C.ar    1  UNL1        0.0001
     10 C         140.6063  142.9360  168.8460 C.ar    1  UNL1        0.0023
     11 C         141.3057  143.5210  170.0372 C.ar    1  UNL1        0.0296
     12 C         142.7500  143.2040  170.2893 C.ar    1  UNL1        0.1401
     13 F         143.4494  143.7889  171.4803 F       1  UNL1       -0.2042
     14 C         143.4949  142.3021  169.3502 C.ar    1  UNL1        0.0296
     15 C         142.7955  141.7172  168.1591 C.ar    1  UNL1        0.0023
     16 C         137.6586  140.5549  162.3011 C.3     1  UNL1        0.1325
     17 N         136.5545  141.3416  162.9431 N.3     1  UNL1       -0.3148
     18 H         136.5582  141.1740  163.9492 H       1  UNL1        0.1192
     19 H         135.6582  141.0502  162.5531 H       1  UNL1        0.1192
     20 C         137.8676  140.6289  160.8176 C.2     1  UNL1        0.2401
     21 O         137.3210  139.5515  159.9285 O.2     1  UNL1       -0.2734
     22 N         138.6233  141.7803  160.2231 N.am    1  UNL1       -0.2756
     23 C         139.2251  142.9257  160.9819 C.3     1  UNL1        0.0964
     24 C         139.8835  143.8417  159.9932 C.3     1  UNL1        0.0585
     25 C         139.6886  143.2624  158.6234 C.3     1  UNL1        0.1824
     26 F         140.1854  143.8533  157.3373 F       1  UNL1       -0.2354
     27 C         138.9097  141.9883  158.7655 C.3     1  UNL1        0.1286
@<TRIPOS>BOND
     1     2     1    1
     2     2     3    1
     3     3     4   ar
     4     4     5   ar
     5     5     6   ar
     6     6     9    1
     7     9    10   ar
     8    10    11   ar
     9    11    12   ar
    10    12    13    1
    11    12    14   ar
    12    14    15   ar
    13     6     7   ar
    14     7     8   ar
    15     2    16    1
    16    16    17    1
    17    16    20    1
    18    20    21    2
    19    20    22   am
    20    22    23    1
    21    23    24    1
    22    24    25    1
    23    25    26    1
    24    25    27    1
    25     8     3   ar
    26    27    22    1
    27    15     9   ar
    28    17    18    1
    29    17    19    1
@<TRIPOS>MOLECULE
*****
 27 29 0 0 0
SMALL
GASTEIGER

@<TRIPOS>ATOM
      1 C         143.3275  142.2481  169.1392 C.3     1  UNL1        0.0066
      2 C         142.4733  141.5301  168.1368 C.3     1  UNL1        0.0454
      3 C         142.1170  142.1962  166.8409 C.ar    1  UNL1       -0.0207
      4 C         140.7519  142.7886  166.6525 C.ar    1  UNL1       -0.0042
      5 C         140.3958  143.4547  165.3566 C.ar    1  UNL1       -0.0003
      6 C         141.4047  143.5284  164.2490 C.ar    1  UNL1       -0.0000
      7 C         142.7698  142.9360  164.4374 C.ar    1  UNL1       -0.0003
      8 C         143.1260  142.2699  165.7333 C.ar    1  UNL1       -0.0042
      9 C         141.0485  144.1945  162.9531 C.ar    1  UNL1        0.0001
     10 C         141.6678  143.7213  161.6715 C.ar    1  UNL1        0.0023
     11 C         141.3116  144.3874  160.3755 C.ar    1  UNL1        0.0296
     12 C         140.3360  145.5268  160.3612 C.ar    1  UNL1        0.1401
     13 F         139.9798  146.1929  159.0654 F       1  UNL1       -0.2042
     14 C         139.7167  146.0000  161.6429 C.ar    1  UNL1        0.0296
     15 C         140.0729  145.3338  162.9388 C.ar    1  UNL1        0.0023
     16 C         141.9752  140.1459  168.4304 C.3     1  UNL1        0.1325
     17 N         142.8157  139.2021  169.2384 N.3     1  UNL1       -0.3148
     18 H         143.6860  139.6634  169.5032 H       1  UNL1        0.1192
     19 H         143.0259  138.3731  168.6825 H       1  UNL1        0.1192
     20 C         140.6368  139.7057  167.9159 C.2     1  UNL1        0.2401
     21 O         139.4128  139.8783  168.7658 O.2     1  UNL1       -0.2734
     22 N         140.5222  139.0928  166.5517 N.am    1  UNL1       -0.2756
     23 C         141.6517  138.8575  165.5931 C.3     1  UNL1        0.0964
     24 C         141.0856  138.2269  164.3554 C.3     1  UNL1        0.0585
     25 C         139.6062  138.0724  164.5491 C.3     1  UNL1        0.1824
     26 F         138.6439  137.4857  163.5592 F       1  UNL1       -0.2354
     27 C         139.2580  138.6075  165.9064 C.3     1  UNL1        0.1286
@<TRIPOS>BOND
     1     2     1    1
     2     2     3    1
     3     3     4   ar
     4     4     5   ar
     5     5     6   ar
     6     6     9    1
     7     9    10   ar
     8    10    11   ar
     9    11    12   ar
    10    12    13    1
    11    12    14   ar
    12    14    15   ar
    13     6     7   ar
    14     7     8   ar
    15     2    16    1
    16    16    17    1
    17    16    20    1
    18    20    21    2
    19    20    22   am
    20    22    23    1
    21    23    24    1
    22    24    25    1
    23    25    26    1
    24    25    27    1
    25     8     3   ar
    26    27    22    1
    27    15     9   ar
    28    17    18    1
    29    17    19    1
@<TRIPOS>MOLECULE
*****
 27 29 0 0 0
SMALL
GASTEIGER

@<TRIPOS>ATOM
      1 C         143.9576  142.7346  160.4990 C.3     1  UNL1        0.0066
      2 C         142.8381  143.1229  161.4187 C.3     1  UNL1        0.0454
      3 C         142.8549  142.6768  162.8508 C.ar    1  UNL1       -0.0207
      4 C         142.1012  141.4470  163.2621 C.ar    1  UNL1       -0.0042
      5 C         142.1180  141.0009  164.6942 C.ar    1  UNL1       -0.0003
      6 C         142.8887  141.7848  165.7148 C.ar    1  UNL1       -0.0000
      7 C         143.6424  143.0146  165.3035 C.ar    1  UNL1       -0.0003
      8 C         143.6255  143.4607  163.8715 C.ar    1  UNL1       -0.0042
      9 C         142.9055  141.3387  167.1469 C.ar    1  UNL1        0.0001
     10 C         143.2965  142.3021  168.2280 C.ar    1  UNL1        0.0023
     11 C         143.3133  141.8560  169.6601 C.ar    1  UNL1        0.0296
     12 C         142.9391  140.4464  170.0110 C.ar    1  UNL1        0.1401
     13 F         142.9560  140.0003  171.4430 F       1  UNL1       -0.2042
     14 C         142.5482  139.4830  168.9298 C.ar    1  UNL1        0.0296
     15 C         142.5313  139.9291  167.4978 C.ar    1  UNL1        0.0023
     16 C         141.7017  143.9574  160.9064 C.3     1  UNL1        0.1325
     17 N         141.9809  145.1853  160.0913 N.3     1  UNL1       -0.3148
     18 H         142.9887  145.3003  159.9840 H       1  UNL1        0.1192
     19 H         141.5937  146.0022  160.5636 H       1  UNL1        0.1192
     20 C         140.2863  143.5640  161.2093 C.2     1  UNL1        0.2401
     21 O         139.5039  142.7556  160.2171 O.2     1  UNL1       -0.2734
     22 N         139.6533  143.9789  162.5043 N.am    1  UNL1       -0.2756
     23 C         140.3077  144.7841  163.5875 C.3     1  UNL1        0.0964
     24 C         139.3135  144.9644  164.6961 C.3     1  UNL1        0.0585
     25 C         138.0446  144.2705  164.2982 C.3     1  UNL1        0.1824
     26 F         136.7866  144.1983  165.1119 F       1  UNL1       -0.2354
     27 C         138.2546  143.6615  162.9435 C.3     1  UNL1        0.1286
@<TRIPOS>BOND
     1     2     1    1
     2     2     3    1
     3     3     4   ar
     4     4     5   ar
     5     5     6   ar
     6     6     9    1
     7     9    10   ar
     8    10    11   ar
     9    11    12   ar
    10    12    13    1
    11    12    14   ar
    12    14    15   ar
    13     6     7   ar
    14     7     8   ar
    15     2    16    1
    16    16    17    1
    17    16    20    1
    18    20    21    2
    19    20    22   am
    20    22    23    1
    21    23    24    1
    22    24    25    1
    23    25    26    1
    24    25    27    1
    25     8     3   ar
    26    27    22    1
    27    15     9   ar
    28    17    18    1
    29    17    19    1
@<TRIPOS>MOLECULE
*****
 27 29 0 0 0
SMALL
GASTEIGER

@<TRIPOS>ATOM
      1 C         144.0387  139.4288  160.9093 C.3     1  UNL1        0.0066
      2 C         143.8041  140.6475  161.7516 C.3     1  UNL1        0.0454
      3 C         143.2365  140.5066  163.1330 C.ar    1  UNL1       -0.0207
      4 C         141.7541  140.5885  163.3467 C.ar    1  UNL1       -0.0042
      5 C         141.1866  140.4477  164.7280 C.ar    1  UNL1       -0.0003
      6 C         142.1015  140.2249  165.8956 C.ar    1  UNL1       -0.0000
      7 C         143.5839  140.1430  165.6819 C.ar    1  UNL1       -0.0003
      8 C         144.1514  140.2839  164.3006 C.ar    1  UNL1       -0.0042
      9 C         141.5339  140.0840  167.2769 C.ar    1  UNL1        0.0001
     10 C         142.4112  139.6298  168.4056 C.ar    1  UNL1        0.0023
     11 C         141.8436  139.4889  169.7869 C.ar    1  UNL1        0.0296
     12 C         140.3986  139.8023  170.0396 C.ar    1  UNL1        0.1401
     13 F         139.8310  139.6615  171.4208 F       1  UNL1       -0.2042
     14 C         139.5213  140.2566  168.9108 C.ar    1  UNL1        0.0296
     15 C         140.0889  140.3974  167.5296 C.ar    1  UNL1        0.0023
     16 C         144.1371  142.0072  161.2127 C.3     1  UNL1        0.1325
     17 N         145.5378  142.5336  161.3187 N.3     1  UNL1       -0.3148
     18 H         146.1271  141.8412  161.7809 H       1  UNL1        0.1192
     19 H         145.5364  143.3964  161.8626 H       1  UNL1        0.1192
     20 C         143.0695  142.8404  160.5678 C.2     1  UNL1        0.2401
     21 O         142.7537  142.6597  159.1126 O.2     1  UNL1       -0.2734
     22 N         142.3177  143.8544  161.3781 N.am    1  UNL1       -0.2756
     23 C         142.5219  144.1456  162.8353 C.3     1  UNL1        0.0964
     24 C         141.5600  145.2264  163.2313 C.3     1  UNL1        0.0585
     25 C         140.7613  145.6031  162.0188 C.3     1  UNL1        0.1824
     26 F         139.6836  146.6449  161.9616 F       1  UNL1       -0.2354
     27 C         141.2296  144.7552  160.8735 C.3     1  UNL1        0.1286
@<TRIPOS>BOND
     1     2     1    1
     2     2     3    1
     3     3     4   ar
     4     4     5   ar
     5     5     6   ar
     6     6     9    1
     7     9    10   ar
     8    10    11   ar
     9    11    12   ar
    10    12    13    1
    11    12    14   ar
    12    14    15   ar
    13     6     7   ar
    14     7     8   ar
    15     2    16    1
    16    16    17    1
    17    16    20    1
    18    20    21    2
    19    20    22   am
    20    22    23    1
    21    23    24    1
    22    24    25    1
    23    25    26    1
    24    25    27    1
    25     8     3   ar
    26    27    22    1
    27    15     9   ar
    28    17    18    1
    29    17    19    1
@<TRIPOS>MOLECULE
*****
 27 29 0 0 0
SMALL
GASTEIGER

@<TRIPOS>ATOM
      1 C         139.9702  146.2552  161.9285 C.3     1  UNL1        0.0066
      2 C         139.9287  144.7675  162.1154 C.3     1  UNL1        0.0454
      3 C         140.0379  144.1811  163.4918 C.ar    1  UNL1       -0.0207
      4 C         139.1000  144.6275  164.5738 C.ar    1  UNL1       -0.0042
      5 C         139.2092  144.0411  165.9501 C.ar    1  UNL1       -0.0003
      6 C         140.2565  143.0083  166.2443 C.ar    1  UNL1       -0.0000
      7 C         141.1945  142.5619  165.1623 C.ar    1  UNL1       -0.0003
      8 C         141.0852  143.1483  163.7860 C.ar    1  UNL1       -0.0042
      9 C         140.3657  142.4219  167.6207 C.ar    1  UNL1        0.0001
     10 C         140.4113  143.3235  168.8186 C.ar    1  UNL1        0.0023
     11 C         140.5205  142.7371  170.1949 C.ar    1  UNL1        0.0296
     12 C         140.5842  141.2491  170.3733 C.ar    1  UNL1        0.1401
     13 F         140.6935  140.6627  171.7496 F       1  UNL1       -0.2042
     14 C         140.5387  140.3475  169.1753 C.ar    1  UNL1        0.0296
     15 C         140.4294  140.9339  167.7990 C.ar    1  UNL1        0.0023
     16 C         139.7779  143.8661  160.9260 C.3     1  UNL1        0.1325
     17 N         138.4512  143.2322  160.6288 N.3     1  UNL1       -0.3148
     18 H         137.7711  143.5212  161.3319 H       1  UNL1        0.1192
     19 H         138.5479  142.2169  160.6464 H       1  UNL1        0.1192
     20 C         140.9536  143.5986  160.0338 C.2     1  UNL1        0.2401
     21 O         141.9535  142.5443  160.4066 O.2     1  UNL1       -0.2734
     22 N         141.1295  144.3852  158.7688 N.am    1  UNL1       -0.2756
     23 C         140.2167  145.4650  158.2678 C.3     1  UNL1        0.0964
     24 C         140.7722  145.9774  156.9721 C.3     1  UNL1        0.0585
     25 C         142.0283  145.2143  156.6722 C.3     1  UNL1        0.1824
     26 F         142.9089  145.4021  155.4726 F       1  UNL1       -0.2354
     27 C         142.2491  144.2303  157.7826 C.3     1  UNL1        0.1286
@<TRIPOS>BOND
     1     2     1    1
     2     2     3    1
     3     3     4   ar
     4     4     5   ar
     5     5     6   ar
     6     6     9    1
     7     9    10   ar
     8    10    11   ar
     9    11    12   ar
    10    12    13    1
    11    12    14   ar
    12    14    15   ar
    13     6     7   ar
    14     7     8   ar
    15     2    16    1
    16    16    17    1
    17    16    20    1
    18    20    21    2
    19    20    22   am
    20    22    23    1
    21    23    24    1
    22    24    25    1
    23    25    26    1
    24    25    27    1
    25     8     3   ar
    26    27    22    1
    27    15     9   ar
    28    17    18    1
    29    17    19    1
