@<TRIPOS>MOLECULE
*****
 32 36 0 0 0
SMALL
GASTEIGER

@<TRIPOS>ATOM
      1 C         139.5113  139.6280  166.8201 C.ar    1  UNL1        0.0206
      2 C         138.5500  138.5028  166.5757 C.ar    1  UNL1        0.0013
      3 C         138.4125  137.9191  165.2007 C.ar    1  UNL1       -0.0045
      4 C         139.2363  138.4608  164.0702 C.ar    1  UNL1       -0.0247
      5 C         140.1975  139.5860  164.3147 C.ar    1  UNL1       -0.0246
      6 C         140.3351  140.1696  165.6896 C.ar    1  UNL1       -0.0029
      7 C         141.1066  140.2687  163.3361 C.3     1  UNL1        0.0433
      8 C         141.2789  139.9946  161.8714 C.3     1  UNL1        0.0768
      9 N         140.5848  138.9704  161.0236 N.3     1  UNL1       -0.2720
     10 C         139.5468  137.9671  161.4310 C.3     1  UNL1        0.0768
     11 C         138.9466  137.7403  162.7868 C.3     1  UNL1        0.0433
     12 C         141.2401  142.4744  170.9176 C.3     1  UNL1        0.0754
     13 C         140.4434  141.5199  170.0786 C.ar    1  UNL1        0.1548
     14 C         140.6731  141.2186  168.6271 C.ar    1  UNL1        0.0580
     15 C         139.6488  140.2116  168.1951 C.ar    1  UNL1        0.1227
     16 N         138.7861  139.8905  169.3794 N.ar    1  UNL1       -0.0774
     17 O         139.2772  140.6991  170.5434 O.2     1  UNL1       -0.3578
     18 C         140.9809  138.9461  159.5771 C.3     1  UNL1        0.0730
     19 C         140.5312  140.0428  158.6577 C.3     1  UNL1        0.0294
     20 C         139.1326  140.0409  158.1157 C.3     1  UNL1        0.0666
     21 S         138.1718  141.1211  158.5153 S.3     1  UNL1       -0.0756
     22 C         138.5966  142.1799  159.4893 C.ar    1  UNL1        0.1932
     23 N         139.2914  143.4646  159.1476 N.ar    1  UNL1       -0.1221
     24 N         139.5253  144.2186  160.4230 N.ar    1  UNL1       -0.1277
     25 C         138.9751  143.3998  161.5531 C.ar    1  UNL1        0.1729
     26 N         138.4011  142.1398  160.9760 N.ar    1  UNL1       -0.2880
     27 C         137.7466  141.0340  161.7498 C.3     1  UNL1        0.1340
     28 C         138.9953  143.7751  163.0052 C.ar    1  UNL1        0.0654
     29 C         140.1661  143.6438  163.9336 C.ar    1  UNL1        0.0101
     30 C         139.7427  144.1352  165.2861 C.ar    1  UNL1        0.0076
     31 C         138.3102  144.5702  165.1936 C.ar    1  UNL1        0.0355
     32 S         137.8482  144.3477  163.7839 S.2     1  UNL1       -0.0833
@<TRIPOS>BOND
     1    12    13    1
     2    13    14   ar
     3    14    15   ar
     4    15     1    1
     5     1     2   ar
     6     2     3   ar
     7     3     4   ar
     8     4     5   ar
     9     5     6   ar
    10     5     7    1
    11     7     8    1
    12     8     9    1
    13     9    18    1
    14    18    19    1
    15    19    20    1
    16    20    21    1
    17    21    22    1
    18    22    23   ar
    19    23    24   ar
    20    24    25   ar
    21    25    28    1
    22    28    29   ar
    23    29    30   ar
    24    30    31   ar
    25    31    32   ar
    26    25    26   ar
    27    26    27    1
    28     9    10    1
    29    10    11    1
    30    15    16   ar
    31    16    17   ar
    32    17    13   ar
    33     6     1   ar
    34    26    22   ar
    35    11     4    1
    36    32    28   ar
@<TRIPOS>MOLECULE
*****
 32 36 0 0 0
SMALL
GASTEIGER

@<TRIPOS>ATOM
      1 C         138.9445  139.5288  165.6062 C.ar    1  UNL1        0.0206
      2 C         138.9359  138.1614  164.9896 C.ar    1  UNL1        0.0013
      3 C         138.8500  138.0110  163.4996 C.ar    1  UNL1       -0.0045
      4 C         138.7727  139.2282  162.6262 C.ar    1  UNL1       -0.0247
      5 C         138.7813  140.5954  163.2428 C.ar    1  UNL1       -0.0246
      6 C         138.8672  140.7458  164.7328 C.ar    1  UNL1       -0.0029
      7 C         138.7130  141.9296  162.5605 C.3     1  UNL1        0.0433
      8 C         138.6193  142.2257  161.0929 C.3     1  UNL1        0.0768
      9 N         138.5707  141.2610  159.9455 N.3     1  UNL1       -0.2720
     10 C         138.6038  139.7617  159.9819 C.3     1  UNL1        0.0768
     11 C         138.6937  138.8570  161.1750 C.3     1  UNL1        0.0433
     12 C         140.5996  140.9055  170.4276 C.3     1  UNL1        0.0754
     13 C         139.7911  140.3119  169.3124 C.ar    1  UNL1        0.1548
     14 C         140.0981  140.4172  167.8478 C.ar    1  UNL1        0.0580
     15 C         139.0303  139.6791  167.0962 C.ar    1  UNL1        0.1227
     16 N         138.0634  139.1176  168.0961 N.ar    1  UNL1       -0.0774
     17 O         138.5336  139.5087  169.4657 O.2     1  UNL1       -0.3578
     18 C         138.4765  141.8768  158.5810 C.3     1  UNL1        0.0730
     19 C         139.6364  142.6483  158.0245 C.3     1  UNL1        0.0294
     20 C         139.4750  144.0985  157.6769 C.3     1  UNL1        0.0666
     21 S         140.3501  145.1278  158.3284 S.3     1  UNL1       -0.0756
     22 C         140.5196  145.1332  159.8188 C.ar    1  UNL1        0.1932
     23 N         139.6571  145.8681  160.8017 N.ar    1  UNL1       -0.1221
     24 N         140.1858  145.5937  162.1783 N.ar    1  UNL1       -0.1277
     25 C         141.3751  144.6892  162.0463 C.ar    1  UNL1        0.1729
     26 N         141.5814  144.4045  160.5880 N.ar    1  UNL1       -0.2880
     27 C         142.6602  143.5426  160.0020 C.3     1  UNL1        0.1340
     28 C         142.2113  144.1618  163.1744 C.ar    1  UNL1        0.0654
     29 C         141.8010  143.1053  164.1570 C.ar    1  UNL1        0.0101
     30 C         142.9407  142.8889  165.1079 C.ar    1  UNL1        0.0076
     31 C         144.0554  143.8117  164.7131 C.ar    1  UNL1        0.0355
     32 S         143.6046  144.5984  163.5181 S.2     1  UNL1       -0.0833
@<TRIPOS>BOND
     1    12    13    1
     2    13    14   ar
     3    14    15   ar
     4    15     1    1
     5     1     2   ar
     6     2     3   ar
     7     3     4   ar
     8     4     5   ar
     9     5     6   ar
    10     5     7    1
    11     7     8    1
    12     8     9    1
    13     9    18    1
    14    18    19    1
    15    19    20    1
    16    20    21    1
    17    21    22    1
    18    22    23   ar
    19    23    24   ar
    20    24    25   ar
    21    25    28    1
    22    28    29   ar
    23    29    30   ar
    24    30    31   ar
    25    31    32   ar
    26    25    26   ar
    27    26    27    1
    28     9    10    1
    29    10    11    1
    30    15    16   ar
    31    16    17   ar
    32    17    13   ar
    33     6     1   ar
    34    26    22   ar
    35    11     4    1
    36    32    28   ar
@<TRIPOS>MOLECULE
*****
 32 36 0 0 0
SMALL
GASTEIGER

@<TRIPOS>ATOM
      1 C         139.6190  139.6292  166.9157 C.ar    1  UNL1        0.0206
      2 C         138.3325  139.2952  166.2205 C.ar    1  UNL1        0.0013
      3 C         138.3501  138.8201  164.7978 C.ar    1  UNL1       -0.0045
      4 C         139.6544  138.6790  164.0703 C.ar    1  UNL1       -0.0247
      5 C         140.9408  139.0129  164.7656 C.ar    1  UNL1       -0.0246
      6 C         140.9232  139.4880  166.1882 C.ar    1  UNL1       -0.0029
      7 C         142.3397  138.9430  164.2286 C.3     1  UNL1        0.0433
      8 C         142.7975  138.5218  162.8635 C.3     1  UNL1        0.0768
      9 N         141.9695  138.0666  161.6986 N.3     1  UNL1       -0.2720
     10 C         140.4793  137.9201  161.6108 C.3     1  UNL1        0.0768
     11 C         139.4489  138.1926  162.6663 C.3     1  UNL1        0.0433
     12 C         140.8797  142.1337  171.3899 C.3     1  UNL1        0.0754
     13 C         140.1807  141.2554  170.3950 C.ar    1  UNL1        0.1548
     14 C         140.5727  141.0633  168.9598 C.ar    1  UNL1        0.0580
     15 C         139.6012  140.1042  168.3384 C.ar    1  UNL1        0.1227
     16 N         138.6088  139.7035  169.3893 N.ar    1  UNL1       -0.0774
     17 O         138.9669  140.4150  170.6603 O.2     1  UNL1       -0.3578
     18 C         142.7327  137.7109  160.4573 C.3     1  UNL1        0.0730
     19 C         142.9123  138.7283  159.3697 C.3     1  UNL1        0.0294
     20 C         143.8891  139.8525  159.5482 C.3     1  UNL1        0.0666
     21 S         143.3938  141.2615  159.6868 S.3     1  UNL1       -0.0756
     22 C         142.9275  141.7647  161.0208 C.ar    1  UNL1        0.1932
     23 N         143.7819  141.9565  162.2386 N.ar    1  UNL1       -0.1221
     24 N         142.9074  142.4748  163.3416 N.ar    1  UNL1       -0.1277
     25 C         141.5124  142.6034  162.8054 C.ar    1  UNL1        0.1729
     26 N         141.5248  142.1645  161.3710 N.ar    1  UNL1       -0.2880
     27 C         140.3422  142.1313  160.4489 C.3     1  UNL1        0.1340
     28 C         140.3152  143.0860  163.5693 C.ar    1  UNL1        0.0654
     29 C         139.0937  142.2791  163.8961 C.ar    1  UNL1        0.0101
     30 C         138.1528  143.1548  164.6694 C.ar    1  UNL1        0.0076
     31 C         138.7928  144.5029  164.8207 C.ar    1  UNL1        0.0355
     32 S         140.1293  144.4604  164.1408 S.2     1  UNL1       -0.0833
@<TRIPOS>BOND
     1    12    13    1
     2    13    14   ar
     3    14    15   ar
     4    15     1    1
     5     1     2   ar
     6     2     3   ar
     7     3     4   ar
     8     4     5   ar
     9     5     6   ar
    10     5     7    1
    11     7     8    1
    12     8     9    1
    13     9    18    1
    14    18    19    1
    15    19    20    1
    16    20    21    1
    17    21    22    1
    18    22    23   ar
    19    23    24   ar
    20    24    25   ar
    21    25    28    1
    22    28    29   ar
    23    29    30   ar
    24    30    31   ar
    25    31    32   ar
    26    25    26   ar
    27    26    27    1
    28     9    10    1
    29    10    11    1
    30    15    16   ar
    31    16    17   ar
    32    17    13   ar
    33     6     1   ar
    34    26    22   ar
    35    11     4    1
    36    32    28   ar
@<TRIPOS>MOLECULE
*****
 32 36 0 0 0
SMALL
GASTEIGER

@<TRIPOS>ATOM
      1 C         140.8582  142.8859  166.0539 C.ar    1  UNL1        0.0206
      2 C         139.6703  143.7987  166.1293 C.ar    1  UNL1        0.0013
      3 C         139.2775  144.6186  164.9362 C.ar    1  UNL1       -0.0045
      4 C         140.0728  144.5258  163.6677 C.ar    1  UNL1       -0.0247
      5 C         141.2606  143.6131  163.5923 C.ar    1  UNL1       -0.0246
      6 C         141.6534  142.7931  164.7853 C.ar    1  UNL1       -0.0029
      7 C         142.1830  143.3721  162.4341 C.3     1  UNL1        0.0433
      8 C         142.1451  143.9846  161.0653 C.3     1  UNL1        0.0768
      9 N         141.1757  144.9890  160.5167 N.3     1  UNL1       -0.2720
     10 C         140.0046  145.6293  161.2012 C.3     1  UNL1        0.0768
     11 C         139.5137  145.4231  162.6036 C.3     1  UNL1        0.0433
     12 C         140.5993  139.9448  170.4314 C.3     1  UNL1        0.0754
     13 C         141.1319  140.7141  169.2591 C.ar    1  UNL1        0.1548
     14 C         140.3112  141.4381  168.2333 C.ar    1  UNL1        0.0580
     15 C         141.2509  142.0660  167.2470 C.ar    1  UNL1        0.1227
     16 N         142.6523  141.7299  167.6632 N.ar    1  UNL1       -0.0774
     17 O         142.5787  140.8944  168.9067 O.2     1  UNL1       -0.3578
     18 C         141.4080  145.4088  159.0955 C.3     1  UNL1        0.0730
     19 C         141.0593  144.4782  157.9719 C.3     1  UNL1        0.0294
     20 C         139.7961  143.6715  158.0308 C.3     1  UNL1        0.0666
     21 S         139.8060  142.3070  158.6535 S.3     1  UNL1       -0.0756
     22 C         139.1271  142.0792  159.9716 C.ar    1  UNL1        0.1932
     23 N         137.9775  142.8715  160.5198 N.ar    1  UNL1       -0.1221
     24 N         137.6185  142.3011  161.8598 N.ar    1  UNL1       -0.1277
     25 C         138.5464  141.1562  162.1399 C.ar    1  UNL1        0.1729
     26 N         139.4788  141.0191  160.9728 N.ar    1  UNL1       -0.2880
     27 C         140.5710  140.0006  160.8319 C.3     1  UNL1        0.1340
     28 C         138.5426  140.2990  163.3708 C.ar    1  UNL1        0.0654
     29 C         138.3043  140.7723  164.7740 C.ar    1  UNL1        0.0101
     30 C         138.3908  139.5838  165.6851 C.ar    1  UNL1        0.0076
     31 C         138.6826  138.3759  164.8449 C.ar    1  UNL1        0.0355
     32 S         138.7764  138.8180  163.4145 S.2     1  UNL1       -0.0833
@<TRIPOS>BOND
     1    12    13    1
     2    13    14   ar
     3    14    15   ar
     4    15     1    1
     5     1     2   ar
     6     2     3   ar
     7     3     4   ar
     8     4     5   ar
     9     5     6   ar
    10     5     7    1
    11     7     8    1
    12     8     9    1
    13     9    18    1
    14    18    19    1
    15    19    20    1
    16    20    21    1
    17    21    22    1
    18    22    23   ar
    19    23    24   ar
    20    24    25   ar
    21    25    28    1
    22    28    29   ar
    23    29    30   ar
    24    30    31   ar
    25    31    32   ar
    26    25    26   ar
    27    26    27    1
    28     9    10    1
    29    10    11    1
    30    15    16   ar
    31    16    17   ar
    32    17    13   ar
    33     6     1   ar
    34    26    22   ar
    35    11     4    1
    36    32    28   ar
@<TRIPOS>MOLECULE
*****
 32 36 0 0 0
SMALL
GASTEIGER

@<TRIPOS>ATOM
      1 C         142.9365  142.0609  166.9184 C.ar    1  UNL1        0.0206
      2 C         143.8529  142.9980  166.1888 C.ar    1  UNL1        0.0013
      3 C         144.3831  142.6266  164.8356 C.ar    1  UNL1       -0.0045
      4 C         143.9968  141.3181  164.2121 C.ar    1  UNL1       -0.0247
      5 C         143.0804  140.3812  164.9416 C.ar    1  UNL1       -0.0246
      6 C         142.5503  140.7525  166.2947 C.ar    1  UNL1       -0.0029
      7 C         142.5740  139.0387  164.5042 C.3     1  UNL1        0.0433
      8 C         142.8589  138.3016  163.2291 C.3     1  UNL1        0.0768
      9 N         143.7205  138.7251  162.0767 N.3     1  UNL1       -0.2720
     10 C         144.5102  139.9901  161.9146 C.3     1  UNL1        0.0768
     11 C         144.6331  141.1441  162.8649 C.3     1  UNL1        0.0433
     12 C         139.6362  143.1097  170.9044 C.3     1  UNL1        0.0754
     13 C         140.8895  142.9145  170.1038 C.ar    1  UNL1        0.1548
     14 C         140.9601  142.5058  168.6621 C.ar    1  UNL1        0.0580
     15 C         142.4064  142.4324  168.2715 C.ar    1  UNL1        0.1227
     16 N         143.2297  142.7957  169.4716 N.ar    1  UNL1       -0.0774
     17 O         142.2922  143.0936  170.6039 O.2     1  UNL1       -0.3578
     18 C         143.8036  137.7553  160.9355 C.3     1  UNL1        0.0730
     19 C         142.7319  137.7383  159.8860 C.3     1  UNL1        0.0294
     20 C         142.2970  139.0189  159.2373 C.3     1  UNL1        0.0666
     21 S         141.0122  139.6717  159.6531 S.3     1  UNL1       -0.0756
     22 C         141.0395  140.9066  160.5041 C.ar    1  UNL1        0.1932
     23 N         141.9930  142.0556  160.3603 N.ar    1  UNL1       -0.1221
     24 N         141.6609  143.0685  161.4156 N.ar    1  UNL1       -0.1277
     25 C         140.5021  142.5455  162.2117 C.ar    1  UNL1        0.1729
     26 N         140.1180  141.2094  161.6484 N.ar    1  UNL1       -0.2880
     27 C         139.0075  140.3304  162.1425 C.3     1  UNL1        0.1340
     28 C         139.8431  143.2372  163.3681 C.ar    1  UNL1        0.0654
     29 C         140.3732  143.3117  164.7693 C.ar    1  UNL1        0.0101
     30 C         139.3960  144.0964  165.5935 C.ar    1  UNL1        0.0076
     31 C         138.2619  144.5068  164.7017 C.ar    1  UNL1        0.0355
     32 S         138.5382  143.9758  163.3263 S.2     1  UNL1       -0.0833
@<TRIPOS>BOND
     1    12    13    1
     2    13    14   ar
     3    14    15   ar
     4    15     1    1
     5     1     2   ar
     6     2     3   ar
     7     3     4   ar
     8     4     5   ar
     9     5     6   ar
    10     5     7    1
    11     7     8    1
    12     8     9    1
    13     9    18    1
    14    18    19    1
    15    19    20    1
    16    20    21    1
    17    21    22    1
    18    22    23   ar
    19    23    24   ar
    20    24    25   ar
    21    25    28    1
    22    28    29   ar
    23    29    30   ar
    24    30    31   ar
    25    31    32   ar
    26    25    26   ar
    27    26    27    1
    28     9    10    1
    29    10    11    1
    30    15    16   ar
    31    16    17   ar
    32    17    13   ar
    33     6     1   ar
    34    26    22   ar
    35    11     4    1
    36    32    28   ar
@<TRIPOS>MOLECULE
*****
 32 36 0 0 0
SMALL
GASTEIGER

@<TRIPOS>ATOM
      1 C         142.7973  141.6742  166.2757 C.ar    1  UNL1        0.0206
      2 C         142.9413  140.1915  166.1001 C.ar    1  UNL1        0.0013
      3 C         143.2582  139.6236  164.7484 C.ar    1  UNL1       -0.0045
      4 C         143.4311  140.5385  163.5723 C.ar    1  UNL1       -0.0247
      5 C         143.2871  142.0211  163.7479 C.ar    1  UNL1       -0.0246
      6 C         142.9702  142.5890  165.0995 C.ar    1  UNL1       -0.0029
      7 C         143.4184  143.1023  162.7164 C.3     1  UNL1        0.0433
      8 C         143.7262  142.9676  161.2544 C.3     1  UNL1        0.0768
      9 N         143.9786  141.7187  160.4631 N.3     1  UNL1       -0.2720
     10 C         143.9857  140.2958  160.9380 C.3     1  UNL1        0.0768
     11 C         143.7420  139.7706  162.3218 C.3     1  UNL1        0.0433
     12 C         140.1427  143.4957  170.4608 C.3     1  UNL1        0.0754
     13 C         141.2602  143.0793  169.5511 C.ar    1  UNL1        0.1548
     14 C         141.1087  142.5167  168.1688 C.ar    1  UNL1        0.0580
     15 C         142.4804  142.2420  167.6274 C.ar    1  UNL1        0.1227
     16 N         143.4795  142.6349  168.6750 N.ar    1  UNL1       -0.0774
     17 O         142.7254  143.1523  169.8638 O.2     1  UNL1       -0.3578
     18 C         144.2614  141.9190  159.0036 C.3     1  UNL1        0.0730
     19 C         143.8108  143.1746  158.3177 C.3     1  UNL1        0.0294
     20 C         142.5340  143.1823  157.5304 C.3     1  UNL1        0.0666
     21 S         141.2416  142.8089  158.1938 S.3     1  UNL1       -0.0756
     22 C         140.6825  143.6718  159.2860 C.ar    1  UNL1        0.1932
     23 N         140.4613  145.1536  159.2130 N.ar    1  UNL1       -0.1221
     24 N         139.8886  145.6021  160.5248 N.ar    1  UNL1       -0.1277
     25 C         139.7559  144.3973  161.4086 C.ar    1  UNL1        0.1729
     26 N         140.2465  143.2044  160.6430 N.ar    1  UNL1       -0.2880
     27 C         140.2930  141.7920  161.1461 C.3     1  UNL1        0.1340
     28 C         139.2255  144.3873  162.8117 C.ar    1  UNL1        0.0654
     29 C         139.9965  144.7430  164.0482 C.ar    1  UNL1        0.0101
     30 C         139.0786  144.5954  165.2254 C.ar    1  UNL1        0.0076
     31 C         137.7403  144.1485  164.7164 C.ar    1  UNL1        0.0355
     32 S         137.8311  144.0199  163.2246 S.2     1  UNL1       -0.0833
@<TRIPOS>BOND
     1    12    13    1
     2    13    14   ar
     3    14    15   ar
     4    15     1    1
     5     1     2   ar
     6     2     3   ar
     7     3     4   ar
     8     4     5   ar
     9     5     6   ar
    10     5     7    1
    11     7     8    1
    12     8     9    1
    13     9    18    1
    14    18    19    1
    15    19    20    1
    16    20    21    1
    17    21    22    1
    18    22    23   ar
    19    23    24   ar
    20    24    25   ar
    21    25    28    1
    22    28    29   ar
    23    29    30   ar
    24    30    31   ar
    25    31    32   ar
    26    25    26   ar
    27    26    27    1
    28     9    10    1
    29    10    11    1
    30    15    16   ar
    31    16    17   ar
    32    17    13   ar
    33     6     1   ar
    34    26    22   ar
    35    11     4    1
    36    32    28   ar
@<TRIPOS>MOLECULE
*****
 32 36 0 0 0
SMALL
GASTEIGER

@<TRIPOS>ATOM
      1 C         142.4465  139.8745  166.3011 C.ar    1  UNL1        0.0206
      2 C         142.8029  138.6507  165.5103 C.ar    1  UNL1        0.0013
      3 C         142.8089  138.7019  164.0111 C.ar    1  UNL1       -0.0045
      4 C         142.4585  139.9769  163.3028 C.ar    1  UNL1       -0.0247
      5 C         142.1022  141.2006  164.0936 C.ar    1  UNL1       -0.0246
      6 C         142.0962  141.1495  165.5927 C.ar    1  UNL1       -0.0029
      7 C         141.7246  142.5623  163.5902 C.3     1  UNL1        0.0433
      8 C         141.6100  143.0364  162.1716 C.3     1  UNL1        0.0768
      9 N         141.8449  142.2660  160.9063 N.3     1  UNL1       -0.2720
     10 C         142.2522  140.8312  160.7468 C.3     1  UNL1        0.0768
     11 C         142.5253  139.8124  161.8133 C.3     1  UNL1        0.0433
     12 C         141.4876  141.0367  171.3617 C.3     1  UNL1        0.0754
     13 C         141.9998  140.3575  170.1263 C.ar    1  UNL1        0.1548
     14 C         141.7387  140.7852  168.7124 C.ar    1  UNL1        0.0580
     15 C         142.4405  139.8233  167.8002 C.ar    1  UNL1        0.1227
     16 N         143.1354  138.8012  168.6502 N.ar    1  UNL1       -0.0774
     17 O         142.8629  139.1314  170.0878 O.2     1  UNL1       -0.3578
     18 C         141.6461  143.0316  159.6318 C.3     1  UNL1        0.0730
     19 C         140.9030  142.4057  158.4889 C.3     1  UNL1        0.0294
     20 C         139.4846  142.8049  158.2080 C.3     1  UNL1        0.0666
     21 S         138.3534  142.0424  158.8315 S.3     1  UNL1       -0.0756
     22 C         138.2888  141.8813  160.3214 C.ar    1  UNL1        0.1932
     23 N         137.9031  142.9439  161.3073 N.ar    1  UNL1       -0.1221
     24 N         137.9744  142.3486  162.6822 N.ar    1  UNL1       -0.1277
     25 C         138.4042  140.9180  162.5461 C.ar    1  UNL1        0.1729
     26 N         138.5985  140.6291  161.0870 N.ar    1  UNL1       -0.2880
     27 C         139.0272  139.3182  160.4972 C.3     1  UNL1        0.1340
     28 C         138.6045  139.9467  163.6715 C.ar    1  UNL1        0.0654
     29 C         139.0606  138.5241  163.5376 C.ar    1  UNL1        0.0101
     30 C         139.1219  137.9256  164.9117 C.ar    1  UNL1        0.0076
     31 C         138.7036  138.9784  165.8949 C.ar    1  UNL1        0.0355
     32 S         138.3838  140.2275  165.1283 S.2     1  UNL1       -0.0833
@<TRIPOS>BOND
     1    12    13    1
     2    13    14   ar
     3    14    15   ar
     4    15     1    1
     5     1     2   ar
     6     2     3   ar
     7     3     4   ar
     8     4     5   ar
     9     5     6   ar
    10     5     7    1
    11     7     8    1
    12     8     9    1
    13     9    18    1
    14    18    19    1
    15    19    20    1
    16    20    21    1
    17    21    22    1
    18    22    23   ar
    19    23    24   ar
    20    24    25   ar
    21    25    28    1
    22    28    29   ar
    23    29    30   ar
    24    30    31   ar
    25    31    32   ar
    26    25    26   ar
    27    26    27    1
    28     9    10    1
    29    10    11    1
    30    15    16   ar
    31    16    17   ar
    32    17    13   ar
    33     6     1   ar
    34    26    22   ar
    35    11     4    1
    36    32    28   ar
@<TRIPOS>MOLECULE
*****
 32 36 0 0 0
SMALL
GASTEIGER

@<TRIPOS>ATOM
      1 C         139.6248  140.8619  166.5047 C.ar    1  UNL1        0.0206
      2 C         138.6309  140.0296  165.7500 C.ar    1  UNL1        0.0013
      3 C         138.2886  140.3737  164.3306 C.ar    1  UNL1       -0.0045
      4 C         138.9402  141.5501  163.6661 C.ar    1  UNL1       -0.0247
      5 C         139.9339  142.3823  164.4208 C.ar    1  UNL1       -0.0246
      6 C         140.2763  142.0383  165.8401 C.ar    1  UNL1       -0.0029
      7 C         140.6932  143.5876  163.9508 C.3     1  UNL1        0.0433
      8 C         140.6461  144.2583  162.6098 C.3     1  UNL1        0.0768
      9 N         139.8282  143.8893  161.4079 N.3     1  UNL1       -0.2720
     10 C         138.8553  142.7585  161.2499 C.3     1  UNL1        0.0768
     11 C         138.4601  141.7175  162.2549 C.3     1  UNL1        0.0433
     12 C         142.2157  140.4476  171.0868 C.3     1  UNL1        0.0754
     13 C         141.1579  140.3273  170.0302 C.ar    1  UNL1        0.1548
     14 C         141.2431  140.8643  168.6322 C.ar    1  UNL1        0.0580
     15 C         139.9670  140.5178  167.9240 C.ar    1  UNL1        0.1227
     16 N         139.0931  139.7667  168.8844 N.ar    1  UNL1       -0.0774
     17 O         139.8292  139.6490  170.1860 O.2     1  UNL1       -0.3578
     18 C         140.0068  144.7671  160.2048 C.3     1  UNL1        0.0730
     19 C         141.3845  145.0665  159.6925 C.3     1  UNL1        0.0294
     20 C         142.0508  144.1222  158.7364 C.3     1  UNL1        0.0666
     21 S         143.0233  143.1005  159.2466 S.3     1  UNL1       -0.0756
     22 C         142.5434  141.9776  160.1177 C.ar    1  UNL1        0.1932
     23 N         141.5490  140.9238  159.7296 N.ar    1  UNL1       -0.1221
     24 N         141.3646  140.0062  160.9018 N.ar    1  UNL1       -0.1277
     25 C         142.2451  140.4930  162.0143 C.ar    1  UNL1        0.1729
     26 N         142.9737  141.7114  161.5297 N.ar    1  UNL1       -0.2880
     27 C         143.9594  142.5212  162.3187 C.3     1  UNL1        0.1340
     28 C         142.3744  139.8706  163.3730 C.ar    1  UNL1        0.0654
     29 C         143.2196  140.3835  164.5009 C.ar    1  UNL1        0.0101
     30 C         143.0488  139.4559  165.6673 C.ar    1  UNL1        0.0076
     31 C         142.0979  138.3696  165.2602 C.ar    1  UNL1        0.0355
     32 S         141.6811  138.6259  163.8422 S.2     1  UNL1       -0.0833
@<TRIPOS>BOND
     1    12    13    1
     2    13    14   ar
     3    14    15   ar
     4    15     1    1
     5     1     2   ar
     6     2     3   ar
     7     3     4   ar
     8     4     5   ar
     9     5     6   ar
    10     5     7    1
    11     7     8    1
    12     8     9    1
    13     9    18    1
    14    18    19    1
    15    19    20    1
    16    20    21    1
    17    21    22    1
    18    22    23   ar
    19    23    24   ar
    20    24    25   ar
    21    25    28    1
    22    28    29   ar
    23    29    30   ar
    24    30    31   ar
    25    31    32   ar
    26    25    26   ar
    27    26    27    1
    28     9    10    1
    29    10    11    1
    30    15    16   ar
    31    16    17   ar
    32    17    13   ar
    33     6     1   ar
    34    26    22   ar
    35    11     4    1
    36    32    28   ar
@<TRIPOS>MOLECULE
*****
 32 36 0 0 0
SMALL
GASTEIGER

@<TRIPOS>ATOM
      1 C         139.7009  141.3173  166.5703 C.ar    1  UNL1        0.0206
      2 C         139.8541  142.7509  166.1563 C.ar    1  UNL1        0.0013
      3 C         139.5787  143.1557  164.7384 C.ar    1  UNL1       -0.0045
      4 C         139.1502  142.1268  163.7345 C.ar    1  UNL1       -0.0247
      5 C         138.9970  140.6933  164.1485 C.ar    1  UNL1       -0.0246
      6 C         139.2724  140.2885  165.5663 C.ar    1  UNL1       -0.0029
      7 C         138.5837  139.5177  163.3133 C.3     1  UNL1        0.0433
      8 C         138.2216  139.4855  161.8580 C.3     1  UNL1        0.0768
      9 N         138.1833  140.6208  160.8785 N.3     1  UNL1       -0.2720
     10 C         138.4976  142.0688  161.1122 C.3     1  UNL1        0.0768
     11 C         138.9279  142.7390  162.3833 C.3     1  UNL1        0.0433
     12 C         141.8531  141.0317  171.3835 C.3     1  UNL1        0.0754
     13 C         140.9655  140.7813  170.2005 C.ar    1  UNL1        0.1548
     14 C         141.0532  141.4701  168.8709 C.ar    1  UNL1        0.0580
     15 C         139.9763  140.9125  167.9881 C.ar    1  UNL1        0.1227
     16 N         139.2230  139.8791  168.7721 N.ar    1  UNL1       -0.0774
     17 O         139.8344  139.7980  170.1394 O.2     1  UNL1       -0.3578
     18 C         137.7769  140.2605  159.4803 C.3     1  UNL1        0.0730
     19 C         138.8237  139.9594  158.4489 C.3     1  UNL1        0.0294
     20 C         139.6133  138.6867  158.5310 C.3     1  UNL1        0.0666
     21 S         141.0621  138.7266  158.9175 S.3     1  UNL1       -0.0756
     22 C         141.4507  138.7892  160.3649 C.ar    1  UNL1        0.1932
     23 N         141.4875  137.6322  161.3188 N.ar    1  UNL1       -0.1221
     24 N         141.9303  138.1478  162.6560 N.ar    1  UNL1       -0.1277
     25 C         142.1672  139.6235  162.5285 C.ar    1  UNL1        0.1729
     26 N         141.8708  140.0199  161.1125 N.ar    1  UNL1       -0.2880
     27 C         141.9760  141.4041  160.5440 C.3     1  UNL1        0.1340
     28 C         142.6209  140.5416  163.6245 C.ar    1  UNL1        0.0654
     29 C         142.8279  142.0224  163.5051 C.ar    1  UNL1        0.0101
     30 C         143.2822  142.5361  164.8392 C.ar    1  UNL1        0.0076
     31 C         143.3560  141.3727  165.7832 C.ar    1  UNL1        0.0355
     32 S         142.9473  140.1400  165.0324 S.2     1  UNL1       -0.0833
@<TRIPOS>BOND
     1    12    13    1
     2    13    14   ar
     3    14    15   ar
     4    15     1    1
     5     1     2   ar
     6     2     3   ar
     7     3     4   ar
     8     4     5   ar
     9     5     6   ar
    10     5     7    1
    11     7     8    1
    12     8     9    1
    13     9    18    1
    14    18    19    1
    15    19    20    1
    16    20    21    1
    17    21    22    1
    18    22    23   ar
    19    23    24   ar
    20    24    25   ar
    21    25    28    1
    22    28    29   ar
    23    29    30   ar
    24    30    31   ar
    25    31    32   ar
    26    25    26   ar
    27    26    27    1
    28     9    10    1
    29    10    11    1
    30    15    16   ar
    31    16    17   ar
    32    17    13   ar
    33     6     1   ar
    34    26    22   ar
    35    11     4    1
    36    32    28   ar
