@<TRIPOS>MOLECULE
*****
 29 31 0 0 0
SMALL
GASTEIGER

@<TRIPOS>ATOM
      1 C         142.7255  140.8671  164.4503 C.2     1  UNL1        0.1397
      2 C         143.7098  141.7395  163.7293 C.2     1  UNL1        0.1350
      3 N         143.2575  142.5871  162.5773 N.pl3   1  UNL1       -0.1998
      4 C         141.8210  142.5623  162.1464 C.2     1  UNL1        0.3442
      5 N         140.8367  141.6899  162.8675 N.2     1  UNL1       -0.0580
      6 C         141.2889  140.8423  164.0194 C.3     1  UNL1        0.2695
      7 H         143.9036  143.1597  162.1040 H       1  UNL1        0.2983
      8 C         140.3045  139.9699  164.7405 C.ar    1  UNL1        0.0414
      9 C         139.5500  140.5070  165.9204 C.ar    1  UNL1        0.0019
     10 C         138.5657  139.6346  166.6415 C.ar    1  UNL1        0.0113
     11 C         138.3358  138.2251  166.1827 C.ar    1  UNL1        0.0585
     12 CL        137.3514  137.3527  166.9037 Cl      1  UNL1       -0.0822
     13 C         139.0903  137.6880  165.0027 C.ar    1  UNL1        0.0226
     14 C         140.0747  138.5605  164.2816 C.ar    1  UNL1        0.0589
     15 CL        140.8292  138.0234  163.1017 Cl      1  UNL1       -0.0824
     16 C         141.3688  143.4100  160.9944 C.ar    1  UNL1        0.1931
     17 N         142.2011  144.4220  160.2643 N.ar    1  UNL1       -0.2297
     18 C         141.3516  145.0319  159.1889 C.ar    1  UNL1        0.1067
     19 C         139.9943  144.3967  159.2544 C.ar    1  UNL1        0.0577
     20 S         140.0049  143.3944  160.3703 S.2     1  UNL1       -0.0586
     21 C         145.1464  141.7644  164.1602 C.3     1  UNL1        0.1334
     22 N         146.2372  141.8083  163.1316 N.3     1  UNL1       -0.3145
     23 H         146.2347  140.9402  162.5960 H       1  UNL1        0.1193
     24 H         147.1385  141.9184  163.5963 H       1  UNL1        0.1193
     25 C         143.1777  140.0195  165.6023 C.2     1  UNL1        0.3447
     26 O         143.8438  138.7001  165.3466 O.2     1  UNL1       -0.2450
     27 O         142.9638  140.4913  167.0100 O.3     1  UNL1       -0.4455
     28 C         141.5052  139.8718  169.0689 C.3     1  UNL1        0.0513
     29 C         142.5724  139.5130  168.0776 C.3     1  UNL1        0.2089
@<TRIPOS>BOND
     1    28    29    1
     2    29    27    1
     3    27    25    1
     4    25    26    2
     5    25     1    1
     6     1     2    2
     7     2    21    1
     8    21    22    1
     9     2     3    1
    10     3     4    1
    11     4    16    1
    12    16    17   ar
    13    17    18   ar
    14    18    19   ar
    15    19    20   ar
    16     4     5    2
    17     5     6    1
    18     6     8    1
    19     8     9   ar
    20     9    10   ar
    21    10    11   ar
    22    11    12    1
    23    11    13   ar
    24    13    14   ar
    25    14    15    1
    26     6     1    1
    27    14     8   ar
    28    20    16   ar
    29    22    23    1
    30    22    24    1
    31     3     7    1
@<TRIPOS>MOLECULE
*****
 29 31 0 0 0
SMALL
GASTEIGER

@<TRIPOS>ATOM
      1 C         138.9986  140.7297  165.0644 C.2     1  UNL1        0.1397
      2 C         138.8763  139.8285  166.2572 C.2     1  UNL1        0.1350
      3 N         139.5691  140.1832  167.5394 N.pl3   1  UNL1       -0.1998
      4 C         140.3842  141.4392  167.6289 C.2     1  UNL1        0.3442
      5 N         140.5065  142.3404  166.4361 N.2     1  UNL1       -0.0580
      6 C         139.8137  141.9857  165.1539 C.3     1  UNL1        0.2695
      7 H         139.4889  139.5917  168.3223 H       1  UNL1        0.2983
      8 C         139.9360  142.8870  163.9611 C.ar    1  UNL1        0.0414
      9 C         141.0061  142.6383  162.9397 C.ar    1  UNL1        0.0019
     10 C         141.1285  143.5395  161.7470 C.ar    1  UNL1        0.0113
     11 C         140.1807  144.6896  161.5755 C.ar    1  UNL1        0.0585
     12 CL        140.3031  145.5908  160.3827 Cl      1  UNL1       -0.0822
     13 C         139.1107  144.9383  162.5968 C.ar    1  UNL1        0.0226
     14 C         138.9884  144.0370  163.7896 C.ar    1  UNL1        0.0589
     15 CL        137.9183  144.2857  164.8110 Cl      1  UNL1       -0.0824
     16 C         141.0771  141.7940  168.9112 C.ar    1  UNL1        0.1931
     17 N         142.3308  142.6072  169.0402 N.ar    1  UNL1       -0.2297
     18 C         142.6664  142.7136  170.4983 C.ar    1  UNL1        0.1067
     19 C         141.6200  141.9661  171.2705 C.ar    1  UNL1        0.0577
     20 S         140.6378  141.3977  170.2896 S.2     1  UNL1       -0.0586
     21 C         138.0612  138.5724  166.1678 C.3     1  UNL1        0.1334
     22 N         137.2242  138.1368  167.3338 N.3     1  UNL1       -0.3145
     23 H         137.8318  137.8908  168.1153 H       1  UNL1        0.1193
     24 H         136.6668  137.3251  167.0679 H       1  UNL1        0.1193
     25 C         138.3058  140.3750  163.7822 C.2     1  UNL1        0.3447
     26 O         137.0770  141.1252  163.3612 O.2     1  UNL1       -0.2450
     27 O         138.8417  139.2700  162.9209 O.3     1  UNL1       -0.4455
     28 C         140.6567  137.5429  163.6086 C.3     1  UNL1        0.0513
     29 C         140.2846  138.8725  163.0224 C.3     1  UNL1        0.2089
@<TRIPOS>BOND
     1    28    29    1
     2    29    27    1
     3    27    25    1
     4    25    26    2
     5    25     1    1
     6     1     2    2
     7     2    21    1
     8    21    22    1
     9     2     3    1
    10     3     4    1
    11     4    16    1
    12    16    17   ar
    13    17    18   ar
    14    18    19   ar
    15    19    20   ar
    16     4     5    2
    17     5     6    1
    18     6     8    1
    19     8     9   ar
    20     9    10   ar
    21    10    11   ar
    22    11    12    1
    23    11    13   ar
    24    13    14   ar
    25    14    15    1
    26     6     1    1
    27    14     8   ar
    28    20    16   ar
    29    22    23    1
    30    22    24    1
    31     3     7    1
@<TRIPOS>MOLECULE
*****
 29 31 0 0 0
SMALL
GASTEIGER

@<TRIPOS>ATOM
      1 C         142.0595  140.1287  164.1370 C.2     1  UNL1        0.1397
      2 C         142.3914  140.3874  162.6973 C.2     1  UNL1        0.1350
      3 N         141.9393  141.6576  162.0400 N.pl3   1  UNL1       -0.1998
      4 C         141.1552  142.6691  162.8223 C.2     1  UNL1        0.3442
      5 N         140.8233  142.4103  164.2621 N.2     1  UNL1       -0.0580
      6 C         141.2755  141.1401  164.9194 C.3     1  UNL1        0.2695
      7 H         142.1571  141.8275  161.0950 H       1  UNL1        0.2983
      8 C         140.9436  140.8814  166.3592 C.ar    1  UNL1        0.0414
      9 C         139.6938  140.1335  166.7181 C.ar    1  UNL1        0.0019
     10 C         139.3619  139.8748  168.1578 C.ar    1  UNL1        0.0113
     11 C         140.2797  140.3639  169.2387 C.ar    1  UNL1        0.0585
     12 CL        139.9478  140.1052  170.6785 Cl      1  UNL1       -0.0822
     13 C         141.5294  141.1118  168.8799 C.ar    1  UNL1        0.0226
     14 C         141.8614  141.3706  167.4401 C.ar    1  UNL1        0.0589
     15 CL        143.1111  142.1185  167.0812 Cl      1  UNL1       -0.0824
     16 C         140.7030  143.9393  162.1650 C.ar    1  UNL1        0.1931
     17 N         140.8788  144.2944  160.7183 N.ar    1  UNL1       -0.2297
     18 C         140.2801  145.6520  160.4981 C.ar    1  UNL1        0.1067
     19 C         139.7343  146.1360  161.8088 C.ar    1  UNL1        0.0577
     20 S         139.9957  145.0775  162.8390 S.2     1  UNL1       -0.0586
     21 C         143.1755  139.3759  161.9148 C.3     1  UNL1        0.1334
     22 N         144.6516  139.2337  162.1401 N.3     1  UNL1       -0.3145
     23 H         145.1250  140.0859  161.8400 H       1  UNL1        0.1193
     24 H         145.0030  138.4419  161.6015 H       1  UNL1        0.1193
     25 C         142.5117  138.8585  164.7944 C.2     1  UNL1        0.3447
     26 O         143.9268  138.7244  165.2735 O.2     1  UNL1       -0.2450
     27 O         141.5488  137.7223  164.9726 O.3     1  UNL1       -0.4455
     28 C         139.2395  137.7345  163.7822 C.3     1  UNL1        0.0513
     29 C         140.6730  137.2954  163.8321 C.3     1  UNL1        0.2089
@<TRIPOS>BOND
     1    28    29    1
     2    29    27    1
     3    27    25    1
     4    25    26    2
     5    25     1    1
     6     1     2    2
     7     2    21    1
     8    21    22    1
     9     2     3    1
    10     3     4    1
    11     4    16    1
    12    16    17   ar
    13    17    18   ar
    14    18    19   ar
    15    19    20   ar
    16     4     5    2
    17     5     6    1
    18     6     8    1
    19     8     9   ar
    20     9    10   ar
    21    10    11   ar
    22    11    12    1
    23    11    13   ar
    24    13    14   ar
    25    14    15    1
    26     6     1    1
    27    14     8   ar
    28    20    16   ar
    29    22    23    1
    30    22    24    1
    31     3     7    1
@<TRIPOS>MOLECULE
*****
 29 31 0 0 0
SMALL
GASTEIGER

@<TRIPOS>ATOM
      1 C         140.1380  139.3167  163.9096 C.2     1  UNL1        0.1397
      2 C         139.7177  139.5342  162.4862 C.2     1  UNL1        0.1350
      3 N         139.7558  140.9123  161.8951 N.pl3   1  UNL1       -0.1998
      4 C         140.2142  142.0729  162.7275 C.2     1  UNL1        0.3442
      5 N         140.6344  141.8554  164.1508 N.2     1  UNL1       -0.0580
      6 C         140.5963  140.4773  164.7419 C.3     1  UNL1        0.2695
      7 H         139.4800  141.0550  160.9609 H       1  UNL1        0.2983
      8 C         141.0166  140.2599  166.1654 C.ar    1  UNL1        0.0414
      9 C         140.0311  140.4635  167.2777 C.ar    1  UNL1        0.0019
     10 C         140.4513  140.2461  168.7012 C.ar    1  UNL1        0.0113
     11 C         141.8570  139.8251  169.0122 C.ar    1  UNL1        0.0585
     12 CL        142.2772  139.6077  170.4357 Cl      1  UNL1       -0.0822
     13 C         142.8425  139.6216  167.8999 C.ar    1  UNL1        0.0226
     14 C         142.4223  139.8390  166.4764 C.ar    1  UNL1        0.0589
     15 CL        143.4078  139.6354  165.3640 Cl      1  UNL1       -0.0824
     16 C         140.2523  143.4510  162.1364 C.ar    1  UNL1        0.1931
     17 N         140.8392  143.8245  160.8074 N.ar    1  UNL1       -0.2297
     18 C         140.6598  145.3019  160.6202 C.ar    1  UNL1        0.1067
     19 C         139.9620  145.8416  161.8334 C.ar    1  UNL1        0.0577
     20 S         139.7102  144.6976  162.7704 S.2     1  UNL1       -0.0586
     21 C         139.2594  138.3735  161.6538 C.3     1  UNL1        0.1334
     22 N         137.9345  137.7277  161.9323 N.3     1  UNL1       -0.3145
     23 H         137.9601  137.2808  162.8489 H       1  UNL1        0.1193
     24 H         137.7412  137.0263  161.2174 H       1  UNL1        0.1193
     25 C         140.0999  137.9386  164.5007 C.2     1  UNL1        0.3447
     26 O         141.3394  137.0941  164.5149 O.2     1  UNL1       -0.2450
     27 O         138.8222  137.4050  165.0775 O.3     1  UNL1       -0.4455
     28 C         137.2805  137.5604  167.1630 C.3     1  UNL1        0.0513
     29 C         138.0386  138.2298  166.0551 C.3     1  UNL1        0.2089
@<TRIPOS>BOND
     1    28    29    1
     2    29    27    1
     3    27    25    1
     4    25    26    2
     5    25     1    1
     6     1     2    2
     7     2    21    1
     8    21    22    1
     9     2     3    1
    10     3     4    1
    11     4    16    1
    12    16    17   ar
    13    17    18   ar
    14    18    19   ar
    15    19    20   ar
    16     4     5    2
    17     5     6    1
    18     6     8    1
    19     8     9   ar
    20     9    10   ar
    21    10    11   ar
    22    11    12    1
    23    11    13   ar
    24    13    14   ar
    25    14    15    1
    26     6     1    1
    27    14     8   ar
    28    20    16   ar
    29    22    23    1
    30    22    24    1
    31     3     7    1
@<TRIPOS>MOLECULE
*****
 29 31 0 0 0
SMALL
GASTEIGER

@<TRIPOS>ATOM
      1 C         142.4360  140.5009  164.3059 C.2     1  UNL1        0.1397
      2 C         142.4327  140.5159  162.8060 C.2     1  UNL1        0.1350
      3 N         141.9035  141.7104  162.0690 N.pl3   1  UNL1       -0.1998
      4 C         141.3776  142.8899  162.8320 C.2     1  UNL1        0.3442
      5 N         141.3809  142.8749  164.3319 N.2     1  UNL1       -0.0580
      6 C         141.9101  141.6804  165.0688 C.3     1  UNL1        0.2695
      7 H         141.9014  141.7202  161.0846 H       1  UNL1        0.2983
      8 C         141.9134  141.6654  166.5688 C.ar    1  UNL1        0.0414
      9 C         143.1084  142.1711  167.3212 C.ar    1  UNL1        0.0019
     10 C         143.1118  142.1562  168.8211 C.ar    1  UNL1        0.0113
     11 C         141.9200  141.6356  169.5687 C.ar    1  UNL1        0.0585
     12 CL        141.9233  141.6206  171.0685 Cl      1  UNL1       -0.0822
     13 C         140.7250  141.1299  168.8162 C.ar    1  UNL1        0.0226
     14 C         140.7217  141.1448  167.3162 C.ar    1  UNL1        0.0589
     15 CL        139.5266  140.6392  166.5638 Cl      1  UNL1       -0.0824
     16 C         140.8484  144.0844  162.0950 C.ar    1  UNL1        0.1931
     17 N         141.0029  144.3548  160.6277 N.ar    1  UNL1       -0.2297
     18 C         140.3218  145.6558  160.3218 C.ar    1  UNL1        0.1067
     19 C         139.7462  146.1894  161.6001 C.ar    1  UNL1        0.0577
     20 S         140.0717  145.2183  162.6960 S.2     1  UNL1       -0.0586
     21 C         142.9586  139.3363  162.0430 C.3     1  UNL1        0.1334
     22 N         144.4377  139.1091  161.9392 N.3     1  UNL1       -0.3145
     23 H         144.8606  139.8641  161.3991 H       1  UNL1        0.1193
     24 H         144.6130  138.2186  161.4738 H       1  UNL1        0.1193
     25 C         142.9652  139.3064  165.0428 C.2     1  UNL1        0.3447
     26 O         144.4445  139.1244  165.2122 O.2     1  UNL1       -0.2450
     27 O         142.0152  138.2939  165.6104 O.3     1  UNL1       -0.4455
     28 C         139.7394  137.6349  164.5442 C.3     1  UNL1        0.0513
     29 C         141.2163  137.4175  164.6919 C.3     1  UNL1        0.2089
@<TRIPOS>BOND
     1    28    29    1
     2    29    27    1
     3    27    25    1
     4    25    26    2
     5    25     1    1
     6     1     2    2
     7     2    21    1
     8    21    22    1
     9     2     3    1
    10     3     4    1
    11     4    16    1
    12    16    17   ar
    13    17    18   ar
    14    18    19   ar
    15    19    20   ar
    16     4     5    2
    17     5     6    1
    18     6     8    1
    19     8     9   ar
    20     9    10   ar
    21    10    11   ar
    22    11    12    1
    23    11    13   ar
    24    13    14   ar
    25    14    15    1
    26     6     1    1
    27    14     8   ar
    28    20    16   ar
    29    22    23    1
    30    22    24    1
    31     3     7    1
@<TRIPOS>MOLECULE
*****
 29 31 0 0 0
SMALL
GASTEIGER

@<TRIPOS>ATOM
      1 C         139.7449  140.6913  164.5200 C.2     1  UNL1        0.1397
      2 C         139.2079  140.4466  163.1410 C.2     1  UNL1        0.1350
      3 N         139.4517  141.4493  162.0524 N.pl3   1  UNL1       -0.1998
      4 C         140.2325  142.6966  162.3427 C.2     1  UNL1        0.3442
      5 N         140.7695  142.9413  163.7217 N.2     1  UNL1       -0.0580
      6 C         140.5257  141.9387  164.8104 C.3     1  UNL1        0.2695
      7 H         139.0992  141.2886  161.1472 H       1  UNL1        0.2983
      8 C         141.0628  142.1834  166.1894 C.ar    1  UNL1        0.0414
      9 C         140.1657  142.7379  167.2561 C.ar    1  UNL1        0.0019
     10 C         140.7027  142.9827  168.6351 C.ar    1  UNL1        0.0113
     11 C         142.1368  142.6729  168.9475 C.ar    1  UNL1        0.0585
     12 CL        142.6738  142.9177  170.3265 Cl      1  UNL1       -0.0822
     13 C         143.0338  142.1184  167.8808 C.ar    1  UNL1        0.0226
     14 C         142.4968  141.8737  166.5017 C.ar    1  UNL1        0.0589
     15 CL        143.3938  141.3191  165.4351 Cl      1  UNL1       -0.0824
     16 C         140.4764  143.6993  161.2540 C.ar    1  UNL1        0.1931
     17 N         139.5751  144.8415  160.8893 N.ar    1  UNL1       -0.2297
     18 C         140.2060  145.5840  159.7488 C.ar    1  UNL1        0.1067
     19 C         141.4972  144.9006  159.4086 C.ar    1  UNL1        0.0577
     20 S         141.6643  143.7358  160.3389 S.2     1  UNL1       -0.0586
     21 C         138.4270  139.1992  162.8506 C.3     1  UNL1        0.1334
     22 N         137.4455  139.1757  161.7166 N.3     1  UNL1       -0.3145
     23 H         136.6769  139.8150  161.9189 H       1  UNL1        0.1193
     24 H         137.0802  138.2302  161.6026 H       1  UNL1        0.1193
     25 C         139.5010  139.6886  165.6087 C.2     1  UNL1        0.3447
     26 O         138.1348  139.5554  166.2133 O.2     1  UNL1       -0.2450
     27 O         140.6234  138.8192  166.0927 O.3     1  UNL1       -0.4455
     28 C         141.1155  137.0645  164.2410 C.3     1  UNL1        0.0513
     29 C         141.5711  138.2005  165.1083 C.3     1  UNL1        0.2089
@<TRIPOS>BOND
     1    28    29    1
     2    29    27    1
     3    27    25    1
     4    25    26    2
     5    25     1    1
     6     1     2    2
     7     2    21    1
     8    21    22    1
     9     2     3    1
    10     3     4    1
    11     4    16    1
    12    16    17   ar
    13    17    18   ar
    14    18    19   ar
    15    19    20   ar
    16     4     5    2
    17     5     6    1
    18     6     8    1
    19     8     9   ar
    20     9    10   ar
    21    10    11   ar
    22    11    12    1
    23    11    13   ar
    24    13    14   ar
    25    14    15    1
    26     6     1    1
    27    14     8   ar
    28    20    16   ar
    29    22    23    1
    30    22    24    1
    31     3     7    1
@<TRIPOS>MOLECULE
*****
 29 31 0 0 0
SMALL
GASTEIGER

@<TRIPOS>ATOM
      1 C         140.1632  140.0755  163.5937 C.2     1  UNL1        0.1397
      2 C         140.3421  138.7508  164.2742 C.2     1  UNL1        0.1350
      3 N         140.6363  138.6964  165.7441 N.pl3   1  UNL1       -0.1998
      4 C         140.7517  139.9667  166.5334 C.2     1  UNL1        0.3442
      5 N         140.5727  141.2914  165.8529 N.2     1  UNL1       -0.0580
      6 C         140.2785  141.3458  164.3830 C.3     1  UNL1        0.2695
      7 H         140.7538  137.8270  166.1907 H       1  UNL1        0.2983
      8 C         140.0996  142.6705  163.7025 C.ar    1  UNL1        0.0414
      9 C         141.2839  143.3759  163.1110 C.ar    1  UNL1        0.0019
     10 C         141.1051  144.7006  162.4305 C.ar    1  UNL1        0.0113
     11 C         139.7418  145.3200  162.3415 C.ar    1  UNL1        0.0585
     12 CL        139.5629  146.6447  161.6610 Cl      1  UNL1       -0.0822
     13 C         138.5574  144.6147  162.9329 C.ar    1  UNL1        0.0226
     14 C         138.7364  143.2899  163.6134 C.ar    1  UNL1        0.0589
     15 CL        137.5520  142.5846  164.2049 Cl      1  UNL1       -0.0824
     16 C         141.0459  139.9123  168.0033 C.ar    1  UNL1        0.1931
     17 N         140.0289  139.8789  169.1054 N.ar    1  UNL1       -0.2297
     18 C         140.7632  139.8277  170.4123 C.ar    1  UNL1        0.1067
     19 C         142.2341  139.8294  170.1180 C.ar    1  UNL1        0.0577
     20 S         142.4087  139.8817  168.6291 S.2     1  UNL1       -0.0586
     21 C         140.2268  137.4804  163.4849 C.3     1  UNL1        0.1334
     22 N         141.3775  137.0130  162.6439 N.3     1  UNL1       -0.3145
     23 H         141.5325  137.6736  161.8824 H       1  UNL1        0.1193
     24 H         141.1649  136.0930  162.2580 H       1  UNL1        0.1193
     25 C         139.8690  140.1299  162.1238 C.2     1  UNL1        0.3447
     26 O         138.4707  140.3915  161.6480 O.2     1  UNL1       -0.2450
     27 O         140.9730  139.9227  161.1298 O.3     1  UNL1       -0.4455
     28 C         143.1461  141.2775  160.6914 C.3     1  UNL1        0.0513
     29 C         142.3866  140.2652  161.4966 C.3     1  UNL1        0.2089
@<TRIPOS>BOND
     1    28    29    1
     2    29    27    1
     3    27    25    1
     4    25    26    2
     5    25     1    1
     6     1     2    2
     7     2    21    1
     8    21    22    1
     9     2     3    1
    10     3     4    1
    11     4    16    1
    12    16    17   ar
    13    17    18   ar
    14    18    19   ar
    15    19    20   ar
    16     4     5    2
    17     5     6    1
    18     6     8    1
    19     8     9   ar
    20     9    10   ar
    21    10    11   ar
    22    11    12    1
    23    11    13   ar
    24    13    14   ar
    25    14    15    1
    26     6     1    1
    27    14     8   ar
    28    20    16   ar
    29    22    23    1
    30    22    24    1
    31     3     7    1
@<TRIPOS>MOLECULE
*****
 29 31 0 0 0
SMALL
GASTEIGER

@<TRIPOS>ATOM
      1 C         140.1493  139.6184  164.0705 C.2     1  UNL1        0.1397
      2 C         140.0547  139.7588  162.5801 C.2     1  UNL1        0.1350
      3 N         140.0374  141.1222  161.9548 N.pl3   1  UNL1       -0.1998
      4 C         140.1147  142.3451  162.8199 C.2     1  UNL1        0.3442
      5 N         140.2093  142.2046  164.3103 N.2     1  UNL1       -0.0580
      6 C         140.2266  140.8413  164.9356 C.3     1  UNL1        0.2695
      7 H         139.9753  141.2143  160.9766 H       1  UNL1        0.2983
      8 C         140.3212  140.7009  166.4260 C.ar    1  UNL1        0.0414
      9 C         139.1762  140.1157  167.1984 C.ar    1  UNL1        0.0019
     10 C         139.2708  139.9753  168.6888 C.ar    1  UNL1        0.0113
     11 C         140.5104  140.4201  169.4069 C.ar    1  UNL1        0.0585
     12 CL        140.6049  140.2797  170.8973 Cl      1  UNL1       -0.0822
     13 C         141.6554  141.0053  168.6345 C.ar    1  UNL1        0.0226
     14 C         141.5608  141.1457  167.1440 C.ar    1  UNL1        0.0589
     15 CL        142.7058  141.7309  166.3717 Cl      1  UNL1       -0.0824
     16 C         140.0974  143.7084  162.1946 C.ar    1  UNL1        0.1931
     17 N         140.6614  144.0702  160.8526 N.ar    1  UNL1       -0.2297
     18 C         140.4256  145.5347  160.6301 C.ar    1  UNL1        0.1067
     19 C         139.7159  146.0782  161.8347 C.ar    1  UNL1        0.0577
     20 S         139.5130  144.9494  162.8016 S.2     1  UNL1       -0.0586
     21 C         139.9774  138.5358  161.7149 C.3     1  UNL1        0.1334
     22 N         138.7075  137.7398  161.6532 N.3     1  UNL1       -0.3145
     23 H         138.5270  137.3166  162.5635 H       1  UNL1        0.1193
     24 H         138.7995  137.0070  160.9497 H       1  UNL1        0.1193
     25 C         140.1666  138.2550  164.6957 C.2     1  UNL1        0.3447
     26 O         138.8774  137.5372  164.9654 O.2     1  UNL1       -0.2450
     27 O         141.4730  137.6095  165.0513 O.3     1  UNL1       -0.4455
     28 C         143.7555  138.3487  166.0483 C.3     1  UNL1        0.0513
     29 C         142.7501  138.3877  164.9357 C.3     1  UNL1        0.2089
@<TRIPOS>BOND
     1    28    29    1
     2    29    27    1
     3    27    25    1
     4    25    26    2
     5    25     1    1
     6     1     2    2
     7     2    21    1
     8    21    22    1
     9     2     3    1
    10     3     4    1
    11     4    16    1
    12    16    17   ar
    13    17    18   ar
    14    18    19   ar
    15    19    20   ar
    16     4     5    2
    17     5     6    1
    18     6     8    1
    19     8     9   ar
    20     9    10   ar
    21    10    11   ar
    22    11    12    1
    23    11    13   ar
    24    13    14   ar
    25    14    15    1
    26     6     1    1
    27    14     8   ar
    28    20    16   ar
    29    22    23    1
    30    22    24    1
    31     3     7    1
@<TRIPOS>MOLECULE
*****
 29 31 0 0 0
SMALL
GASTEIGER

@<TRIPOS>ATOM
      1 C         140.3711  140.2892  164.2412 C.2     1  UNL1        0.1397
      2 C         140.6183  139.0393  165.0327 C.2     1  UNL1        0.1350
      3 N         141.0824  139.1325  166.4561 N.pl3   1  UNL1       -0.1998
      4 C         141.2993  140.4755  167.0879 C.2     1  UNL1        0.3442
      5 N         141.0521  141.7254  166.2963 N.2     1  UNL1       -0.0580
      6 C         140.5880  141.6322  164.8730 C.3     1  UNL1        0.2695
      7 H         141.2447  138.3121  166.9756 H       1  UNL1        0.2983
      8 C         140.3408  142.8822  164.0814 C.ar    1  UNL1        0.0414
      9 C         141.4752  143.5529  163.3649 C.ar    1  UNL1        0.0019
     10 C         141.2280  144.8028  162.5734 C.ar    1  UNL1        0.0113
     11 C         139.8464  145.3821  162.4983 C.ar    1  UNL1        0.0585
     12 CL        139.5992  146.6321  161.7068 Cl      1  UNL1       -0.0822
     13 C         138.7120  144.7115  163.2148 C.ar    1  UNL1        0.0226
     14 C         138.9592  143.4615  164.0063 C.ar    1  UNL1        0.0589
     15 CL        137.8248  142.7908  164.7228 Cl      1  UNL1       -0.0824
     16 C         141.7634  140.5686  168.5112 C.ar    1  UNL1        0.1931
     17 N         142.8408  139.7383  169.1434 N.ar    1  UNL1       -0.2297
     18 C         142.9749  140.1649  170.5752 C.ar    1  UNL1        0.1067
     19 C         141.9804  141.2590  170.8279 C.ar    1  UNL1        0.0577
     20 S         141.2317  141.5085  169.5523 S.2     1  UNL1       -0.0586
     21 C         140.4014  137.6962  164.4010 C.3     1  UNL1        0.1334
     22 N         141.3714  137.1829  163.3784 N.3     1  UNL1       -0.3145
     23 H         141.3313  137.7714  162.5463 H       1  UNL1        0.1193
     24 H         141.1271  136.2245  163.1291 H       1  UNL1        0.1193
     25 C         139.9070  140.1961  162.8178 C.2     1  UNL1        0.3447
     26 O         140.8896  139.8884  161.7272 O.2     1  UNL1       -0.2450
     27 O         138.4602  140.4107  162.4852 O.3     1  UNL1       -0.4455
     28 C         137.8400  138.0074  161.7171 C.3     1  UNL1        0.0513
     29 C         137.7681  139.4929  161.5215 C.3     1  UNL1        0.2089
@<TRIPOS>BOND
     1    28    29    1
     2    29    27    1
     3    27    25    1
     4    25    26    2
     5    25     1    1
     6     1     2    2
     7     2    21    1
     8    21    22    1
     9     2     3    1
    10     3     4    1
    11     4    16    1
    12    16    17   ar
    13    17    18   ar
    14    18    19   ar
    15    19    20   ar
    16     4     5    2
    17     5     6    1
    18     6     8    1
    19     8     9   ar
    20     9    10   ar
    21    10    11   ar
    22    11    12    1
    23    11    13   ar
    24    13    14   ar
    25    14    15    1
    26     6     1    1
    27    14     8   ar
    28    20    16   ar
    29    22    23    1
    30    22    24    1
    31     3     7    1
