@<TRIPOS>MOLECULE
*****
 31 34 0 0 0
SMALL
GASTEIGER

@<TRIPOS>ATOM
      1 C         142.6510  139.3448  165.7352 C.ar    1  UNL1        0.1393
      2 C         142.5090  140.0102  167.0720 C.ar    1  UNL1        0.0689
      3 C         141.1541  140.1498  167.7001 C.ar    1  UNL1        0.1375
      4 N         139.9411  139.6239  166.9915 N.ar    1  UNL1       -0.1988
      5 C         140.0831  138.9585  165.6548 C.ar    1  UNL1        0.2194
      6 N         141.4380  138.8189  165.0266 N.ar    1  UNL1       -0.1986
      7 N         141.0121  140.8153  169.0370 N.pl3   1  UNL1       -0.2879
      8 C         140.0869  141.9849  169.1980 C.3     1  UNL1        0.1242
      9 C         139.9448  142.6504  170.5347 C.3     1  UNL1        0.1636
     10 O         140.7281  142.1462  171.7106 O.3     1  UNL1       -0.3501
     11 C         141.6534  140.9766  171.5495 C.3     1  UNL1        0.1636
     12 C         141.7954  140.3112  170.2127 C.3     1  UNL1        0.1242
     13 N         144.0060  139.2052  165.1070 N.pl3   1  UNL1       -0.2780
     14 H         144.6123  138.4866  165.3990 H       1  UNL1        0.1555
     15 C         144.2681  141.8411  160.5393 C.3     1  UNL1        0.0399
     16 C         144.5576  141.3720  161.9343 C.ar    1  UNL1        0.0293
     17 C         145.6437  141.8887  162.8307 C.ar    1  UNL1        0.1030
     18 N         145.5692  141.1399  164.1283 N.ar    1  UNL1       -0.2228
     19 C         144.4371  140.1604  164.0339 C.ar    1  UNL1        0.1643
     20 S         143.8119  140.3039  162.6779 S.2     1  UNL1       -0.0557
     21 N         138.8701  138.4326  164.9462 N.pl3   1  UNL1       -0.2994
     22 H         138.3065  137.7493  165.3760 H       1  UNL1        0.1499
     23 C         138.5157  138.9478  163.5828 C.3     1  UNL1        0.1120
     24 C         138.4185  137.9995  162.4246 C.3     1  UNL1        0.0278
     25 C         138.2586  140.4113  163.3774 C.ar    1  UNL1        0.0769
     26 C         137.9367  141.2881  164.5511 C.ar    1  UNL1        0.0187
     27 C         137.6795  142.7515  164.3459 C.ar    1  UNL1        0.0325
     28 C         137.7443  143.3383  162.9669 C.ar    1  UNL1        0.1592
     29 F         137.4872  144.8017  162.7616 F       1  UNL1       -0.2025
     30 C         138.0663  142.4615  161.7932 C.ar    1  UNL1        0.1280
     31 N         138.3234  140.9980  161.9985 N.ar    1  UNL1       -0.2442
@<TRIPOS>BOND
     1    15    16    1
     2    16    17   ar
     3    17    18   ar
     4    18    19   ar
     5    19    13    1
     6    13     1    1
     7     1     2   ar
     8     2     3   ar
     9     3     7    1
    10     7     8    1
    11     8     9    1
    12     9    10    1
    13    10    11    1
    14    11    12    1
    15     3     4   ar
    16     4     5   ar
    17     5    21    1
    18    21    23    1
    19    23    24    1
    20    23    25    1
    21    25    26   ar
    22    26    27   ar
    23    27    28   ar
    24    28    29    1
    25    28    30   ar
    26    30    31   ar
    27     5     6   ar
    28    19    20   ar
    29    20    16   ar
    30     6     1   ar
    31    12     7    1
    32    31    25   ar
    33    13    14    1
    34    21    22    1
@<TRIPOS>MOLECULE
*****
 31 34 0 0 0
SMALL
GASTEIGER

@<TRIPOS>ATOM
      1 C         141.0515  139.4933  165.4281 C.ar    1  UNL1        0.1393
      2 C         140.7759  139.8623  166.8556 C.ar    1  UNL1        0.0689
      3 C         141.4514  141.0545  167.4658 C.ar    1  UNL1        0.1375
      4 N         142.4025  141.8776  166.6485 N.ar    1  UNL1       -0.1988
      5 C         142.6780  141.5085  165.2210 C.ar    1  UNL1        0.2194
      6 N         142.0025  140.3164  164.6108 N.ar    1  UNL1       -0.1986
      7 N         141.1759  141.4236  168.8934 N.pl3   1  UNL1       -0.2879
      8 C         141.8914  140.7123  170.0034 C.3     1  UNL1        0.1242
      9 C         141.6159  141.0813  171.4309 C.3     1  UNL1        0.1636
     10 O         140.6249  142.1617  171.7485 O.3     1  UNL1       -0.3501
     11 C         139.9095  142.8730  170.6385 C.3     1  UNL1        0.1636
     12 C         140.1850  142.5039  169.2109 C.3     1  UNL1        0.1242
     13 N         140.3759  138.3011  164.8178 N.pl3   1  UNL1       -0.2780
     14 H         140.3170  137.4573  165.3216 H       1  UNL1        0.1555
     15 C         137.4016  139.7864  160.7156 C.3     1  UNL1        0.0399
     16 C         138.4231  139.0772  161.5545 C.ar    1  UNL1        0.0293
     17 C         139.3549  137.9994  161.0853 C.ar    1  UNL1        0.1030
     18 N         140.1998  137.5775  162.2507 N.ar    1  UNL1       -0.2228
     19 C         139.7902  138.3945  163.4401 C.ar    1  UNL1        0.1643
     20 S         138.6922  139.3214  163.0098 S.2     1  UNL1       -0.0557
     21 N         143.6291  142.3316  164.4037 N.pl3   1  UNL1       -0.2994
     22 H         144.5941  142.1387  164.4289 H       1  UNL1        0.1499
     23 C         143.1098  143.4488  163.5480 C.3     1  UNL1        0.1120
     24 C         144.0685  144.3467  162.8237 C.3     1  UNL1        0.0278
     25 C         141.6316  143.6680  163.4164 C.ar    1  UNL1        0.0769
     26 C         140.9379  144.6562  164.3064 C.ar    1  UNL1        0.0187
     27 C         139.4599  144.8755  164.1749 C.ar    1  UNL1        0.0325
     28 C         138.6755  144.1064  163.1534 C.ar    1  UNL1        0.1592
     29 F         137.1975  144.3256  163.0219 F       1  UNL1       -0.2025
     30 C         139.3692  143.1181  162.2635 C.ar    1  UNL1        0.1280
     31 N         140.8474  142.8989  162.3950 N.ar    1  UNL1       -0.2442
@<TRIPOS>BOND
     1    15    16    1
     2    16    17   ar
     3    17    18   ar
     4    18    19   ar
     5    19    13    1
     6    13     1    1
     7     1     2   ar
     8     2     3   ar
     9     3     7    1
    10     7     8    1
    11     8     9    1
    12     9    10    1
    13    10    11    1
    14    11    12    1
    15     3     4   ar
    16     4     5   ar
    17     5    21    1
    18    21    23    1
    19    23    24    1
    20    23    25    1
    21    25    26   ar
    22    26    27   ar
    23    27    28   ar
    24    28    29    1
    25    28    30   ar
    26    30    31   ar
    27     5     6   ar
    28    19    20   ar
    29    20    16   ar
    30     6     1   ar
    31    12     7    1
    32    31    25   ar
    33    13    14    1
    34    21    22    1
@<TRIPOS>MOLECULE
*****
 31 34 0 0 0
SMALL
GASTEIGER

@<TRIPOS>ATOM
      1 C         138.2264  140.0167  161.5874 C.ar    1  UNL1        0.1393
      2 C         138.1536  140.1230  160.0930 C.ar    1  UNL1        0.0689
      3 C         139.1070  139.3417  159.2383 C.ar    1  UNL1        0.1375
      4 N         140.1332  138.4542  159.8780 N.ar    1  UNL1       -0.1988
      5 C         140.2060  138.3479  161.3724 C.ar    1  UNL1        0.2194
      6 N         139.2525  139.1291  162.2271 N.ar    1  UNL1       -0.1986
      7 N         139.0343  139.4479  157.7438 N.pl3   1  UNL1       -0.2879
      8 C         138.2913  140.5854  157.1080 C.3     1  UNL1        0.1242
      9 C         138.2186  140.6917  155.6136 C.3     1  UNL1        0.1636
     10 O         138.8888  139.6605  154.7548 O.3     1  UNL1       -0.3501
     11 C         139.6318  138.5230  155.3906 C.3     1  UNL1        0.1636
     12 C         139.7046  138.4168  156.8851 C.3     1  UNL1        0.1242
     13 N         137.2729  140.7980  162.4422 N.pl3   1  UNL1       -0.2780
     14 H         136.4077  140.4053  162.6999 H       1  UNL1        0.1555
     15 C         138.5299  144.8898  165.5337 C.3     1  UNL1        0.0399
     16 C         138.2156  144.0583  164.3255 C.ar    1  UNL1        0.0293
     17 C         138.1830  144.5425  162.9061 C.ar    1  UNL1        0.1030
     18 N         137.8259  143.3801  162.0279 N.ar    1  UNL1       -0.2228
     19 C         137.6378  142.1775  162.9045 C.ar    1  UNL1        0.1643
     20 S         137.8786  142.5967  164.3244 S.2     1  UNL1       -0.0557
     21 N         141.2321  137.4603  162.0122 N.pl3   1  UNL1       -0.2994
     22 H         141.4884  136.6135  161.5804 H       1  UNL1        0.1499
     23 C         141.8679  137.8631  163.3097 C.3     1  UNL1        0.1120
     24 C         141.3772  137.2753  164.5995 C.3     1  UNL1        0.0278
     25 C         142.9944  138.8536  163.3173 C.ar    1  UNL1        0.0769
     26 C         143.8204  139.0404  164.5554 C.ar    1  UNL1        0.0187
     27 C         144.9468  140.0309  164.5631 C.ar    1  UNL1        0.0325
     28 C         145.2473  140.8346  163.3327 C.ar    1  UNL1        0.1592
     29 F         146.3737  141.8251  163.3404 F       1  UNL1       -0.2025
     30 C         144.4213  140.6478  162.0947 C.ar    1  UNL1        0.1280
     31 N         143.2948  139.6573  162.0870 N.ar    1  UNL1       -0.2442
@<TRIPOS>BOND
     1    15    16    1
     2    16    17   ar
     3    17    18   ar
     4    18    19   ar
     5    19    13    1
     6    13     1    1
     7     1     2   ar
     8     2     3   ar
     9     3     7    1
    10     7     8    1
    11     8     9    1
    12     9    10    1
    13    10    11    1
    14    11    12    1
    15     3     4   ar
    16     4     5   ar
    17     5    21    1
    18    21    23    1
    19    23    24    1
    20    23    25    1
    21    25    26   ar
    22    26    27   ar
    23    27    28   ar
    24    28    29    1
    25    28    30   ar
    26    30    31   ar
    27     5     6   ar
    28    19    20   ar
    29    20    16   ar
    30     6     1   ar
    31    12     7    1
    32    31    25   ar
    33    13    14    1
    34    21    22    1
@<TRIPOS>MOLECULE
*****
 31 34 0 0 0
SMALL
GASTEIGER

@<TRIPOS>ATOM
      1 C         143.3789  142.4565  164.5593 C.ar    1  UNL1        0.1393
      2 C         142.8970  142.6291  165.9692 C.ar    1  UNL1        0.0689
      3 C         142.5443  141.4266  166.7937 C.ar    1  UNL1        0.1375
      4 N         142.6736  140.0517  166.2082 N.ar    1  UNL1       -0.1988
      5 C         143.1555  139.8792  164.7983 C.ar    1  UNL1        0.2194
      6 N         143.5082  141.0816  163.9738 N.ar    1  UNL1       -0.1986
      7 N         142.0623  141.5991  168.2037 N.pl3   1  UNL1       -0.2879
      8 C         142.6896  140.8076  169.3128 C.3     1  UNL1        0.1242
      9 C         142.2077  140.9801  170.7227 C.3     1  UNL1        0.1636
     10 O         141.0985  141.9440  171.0236 O.3     1  UNL1       -0.3501
     11 C         140.4712  142.7355  169.9145 C.3     1  UNL1        0.1636
     12 C         140.9532  142.5630  168.5045 C.3     1  UNL1        0.1242
     13 N         143.7317  143.6590  163.7348 N.pl3   1  UNL1       -0.2780
     14 H         144.6192  144.0752  163.8258 H       1  UNL1        0.1555
     15 C         139.5922  146.2675  161.7495 C.3     1  UNL1        0.0399
     16 C         140.8293  145.4264  161.8591 C.ar    1  UNL1        0.0293
     17 C         141.5583  144.7777  160.7198 C.ar    1  UNL1        0.1030
     18 N         142.7342  144.0367  161.2838 N.ar    1  UNL1       -0.2228
     19 C         142.7321  144.2274  162.7717 C.ar    1  UNL1        0.1643
     20 S         141.5548  145.0863  163.1272 S.2     1  UNL1       -0.0557
     21 N         143.2848  138.5042  164.2128 N.pl3   1  UNL1       -0.2994
     22 H         143.6705  137.7748  164.7498 H       1  UNL1        0.1499
     23 C         142.8264  138.2406  162.8091 C.3     1  UNL1        0.1120
     24 C         143.8341  138.0436  161.7156 C.3     1  UNL1        0.0278
     25 C         141.3603  138.1741  162.4989 C.ar    1  UNL1        0.0769
     26 C         140.3901  137.7301  163.5531 C.ar    1  UNL1        0.0187
     27 C         138.9240  137.6635  163.2430 C.ar    1  UNL1        0.0325
     28 C         138.4282  138.0410  161.8785 C.ar    1  UNL1        0.1592
     29 F         136.9621  137.9744  161.5683 F       1  UNL1       -0.2025
     30 C         139.3984  138.4850  160.8242 C.ar    1  UNL1        0.1280
     31 N         140.8645  138.5515  161.1345 N.ar    1  UNL1       -0.2442
@<TRIPOS>BOND
     1    15    16    1
     2    16    17   ar
     3    17    18   ar
     4    18    19   ar
     5    19    13    1
     6    13     1    1
     7     1     2   ar
     8     2     3   ar
     9     3     7    1
    10     7     8    1
    11     8     9    1
    12     9    10    1
    13    10    11    1
    14    11    12    1
    15     3     4   ar
    16     4     5   ar
    17     5    21    1
    18    21    23    1
    19    23    24    1
    20    23    25    1
    21    25    26   ar
    22    26    27   ar
    23    27    28   ar
    24    28    29    1
    25    28    30   ar
    26    30    31   ar
    27     5     6   ar
    28    19    20   ar
    29    20    16   ar
    30     6     1   ar
    31    12     7    1
    32    31    25   ar
    33    13    14    1
    34    21    22    1
@<TRIPOS>MOLECULE
*****
 31 34 0 0 0
SMALL
GASTEIGER

@<TRIPOS>ATOM
      1 C         138.9724  140.6952  165.3796 C.ar    1  UNL1        0.1393
      2 C         139.5728  140.6184  166.7520 C.ar    1  UNL1        0.0689
      3 C         140.1306  141.8526  167.3967 C.ar    1  UNL1        0.1375
      4 N         140.0881  143.1635  166.6689 N.ar    1  UNL1       -0.1988
      5 C         139.4877  143.2403  165.2965 C.ar    1  UNL1        0.2194
      6 N         138.9298  142.0062  164.6518 N.ar    1  UNL1       -0.1986
      7 N         140.7311  141.7758  168.7692 N.pl3   1  UNL1       -0.2879
      8 C         141.8850  142.6623  169.1336 C.3     1  UNL1        0.1242
      9 C         142.4854  142.5856  170.5060 C.3     1  UNL1        0.1636
     10 O         141.9320  141.6224  171.5140 O.3     1  UNL1       -0.3501
     11 C         140.7782  140.7360  171.1496 C.3     1  UNL1        0.1636
     12 C         140.1777  140.8127  169.7771 C.3     1  UNL1        0.1242
     13 N         138.4145  139.4610  164.7349 N.pl3   1  UNL1       -0.2780
     14 H         137.6744  138.9734  165.1635 H       1  UNL1        0.1555
     15 C         141.8310  138.0585  160.9612 C.3     1  UNL1        0.0399
     16 C         140.5546  138.3252  161.7026 C.ar    1  UNL1        0.0293
     17 C         139.1671  138.1029  161.1776 C.ar    1  UNL1        0.1030
     18 N         138.1966  138.5013  162.2497 N.ar    1  UNL1       -0.2228
     19 C         138.9842  138.9699  163.4371 C.ar    1  UNL1        0.1643
     20 S         140.4415  138.8610  163.0990 S.2     1  UNL1       -0.0557
     21 N         139.4451  144.5513  164.5687 N.pl3   1  UNL1       -0.2994
     22 H         138.8096  145.2492  164.8485 H       1  UNL1        0.1499
     23 C         140.3708  144.7988  163.4147 C.3     1  UNL1        0.1120
     24 C         139.9513  145.7089  162.2986 C.3     1  UNL1        0.0278
     25 C         141.7160  144.1363  163.3768 C.ar    1  UNL1        0.0769
     26 C         142.8848  144.7718  164.0698 C.ar    1  UNL1        0.0187
     27 C         144.2300  144.1093  164.0319 C.ar    1  UNL1        0.0325
     28 C         144.4065  142.8113  163.3010 C.ar    1  UNL1        0.1592
     29 F         145.7518  142.1489  163.2631 F       1  UNL1       -0.2025
     30 C         143.2378  142.1759  162.6080 C.ar    1  UNL1        0.1280
     31 N         141.8925  142.8384  162.6459 N.ar    1  UNL1       -0.2442
@<TRIPOS>BOND
     1    15    16    1
     2    16    17   ar
     3    17    18   ar
     4    18    19   ar
     5    19    13    1
     6    13     1    1
     7     1     2   ar
     8     2     3   ar
     9     3     7    1
    10     7     8    1
    11     8     9    1
    12     9    10    1
    13    10    11    1
    14    11    12    1
    15     3     4   ar
    16     4     5   ar
    17     5    21    1
    18    21    23    1
    19    23    24    1
    20    23    25    1
    21    25    26   ar
    22    26    27   ar
    23    27    28   ar
    24    28    29    1
    25    28    30   ar
    26    30    31   ar
    27     5     6   ar
    28    19    20   ar
    29    20    16   ar
    30     6     1   ar
    31    12     7    1
    32    31    25   ar
    33    13    14    1
    34    21    22    1
@<TRIPOS>MOLECULE
*****
 31 34 0 0 0
SMALL
GASTEIGER

@<TRIPOS>ATOM
      1 C         138.6273  139.8484  159.3329 C.ar    1  UNL1        0.1393
      2 C         139.0776  140.9742  160.2160 C.ar    1  UNL1        0.0689
      3 C         138.7987  142.3943  159.8217 C.ar    1  UNL1        0.1375
      4 N         138.0695  142.6886  158.5443 N.ar    1  UNL1       -0.1988
      5 C         137.6192  141.5628  157.6612 C.ar    1  UNL1        0.2194
      6 N         137.8981  140.1427  158.0555 N.ar    1  UNL1       -0.1986
      7 N         139.2490  143.5201  160.7047 N.pl3   1  UNL1       -0.2879
      8 C         140.1791  144.5678  160.1687 C.3     1  UNL1        0.1242
      9 C         140.6293  145.6936  161.0517 C.3     1  UNL1        0.1636
     10 O         140.1495  145.7718  162.4708 O.3     1  UNL1       -0.3501
     11 C         139.2194  144.7242  163.0068 C.3     1  UNL1        0.1636
     12 C         138.7691  143.5983  162.1237 C.3     1  UNL1        0.1242
     13 N         138.9063  138.4282  159.7272 N.pl3   1  UNL1       -0.2780
     14 H         138.7877  137.7031  159.0719 H       1  UNL1        0.1555
     15 C         138.9298  137.6155  164.9444 C.3     1  UNL1        0.0399
     16 C         139.3766  137.7394  163.5179 C.ar    1  UNL1        0.0293
     17 C         140.7695  137.5161  163.0076 C.ar    1  UNL1        0.1030
     18 N         140.7628  137.7470  161.5255 N.ar    1  UNL1       -0.2228
     19 C         139.3658  138.1130  161.1198 C.ar    1  UNL1        0.1643
     20 S         138.5092  138.1082  162.3511 S.2     1  UNL1       -0.0557
     21 N         136.8900  141.8571  156.3839 N.pl3   1  UNL1       -0.2994
     22 H         136.9415  142.7550  155.9833 H       1  UNL1        0.1499
     23 C         136.0823  140.7835  155.7169 C.3     1  UNL1        0.1120
     24 C         136.6904  139.9588  154.6213 C.3     1  UNL1        0.0278
     25 C         134.6665  140.5345  156.1454 C.ar    1  UNL1        0.0769
     26 C         133.5349  141.1962  155.4163 C.ar    1  UNL1        0.0187
     27 C         132.1191  140.9472  155.8447 C.ar    1  UNL1        0.0325
     28 C         131.8349  140.0366  157.0023 C.ar    1  UNL1        0.1592
     29 F         130.4192  139.7876  157.4308 F       1  UNL1       -0.2025
     30 C         132.9666  139.3749  157.7315 C.ar    1  UNL1        0.1280
     31 N         134.3824  139.6239  157.3029 N.ar    1  UNL1       -0.2442
@<TRIPOS>BOND
     1    15    16    1
     2    16    17   ar
     3    17    18   ar
     4    18    19   ar
     5    19    13    1
     6    13     1    1
     7     1     2   ar
     8     2     3   ar
     9     3     7    1
    10     7     8    1
    11     8     9    1
    12     9    10    1
    13    10    11    1
    14    11    12    1
    15     3     4   ar
    16     4     5   ar
    17     5    21    1
    18    21    23    1
    19    23    24    1
    20    23    25    1
    21    25    26   ar
    22    26    27   ar
    23    27    28   ar
    24    28    29    1
    25    28    30   ar
    26    30    31   ar
    27     5     6   ar
    28    19    20   ar
    29    20    16   ar
    30     6     1   ar
    31    12     7    1
    32    31    25   ar
    33    13    14    1
    34    21    22    1
@<TRIPOS>MOLECULE
*****
 31 34 0 0 0
SMALL
GASTEIGER

@<TRIPOS>ATOM
      1 C         142.5805  144.0450  161.3905 C.ar    1  UNL1        0.1393
      2 C         141.9799  144.0111  160.0165 C.ar    1  UNL1        0.0689
      3 C         140.5771  144.4955  159.7990 C.ar    1  UNL1        0.1375
      4 N         139.7748  145.0138  160.9556 N.ar    1  UNL1       -0.1988
      5 C         140.3754  145.0477  162.3296 C.ar    1  UNL1        0.2194
      6 N         141.7782  144.5633  162.5471 N.ar    1  UNL1       -0.1986
      7 N         139.9765  144.4616  158.4248 N.pl3   1  UNL1       -0.2879
      8 C         139.2227  143.2488  157.9655 C.3     1  UNL1        0.1242
      9 C         138.6221  143.2149  156.5915 C.3     1  UNL1        0.1636
     10 O         138.7752  144.3938  155.6767 O.3     1  UNL1       -0.3501
     11 C         139.5289  145.6066  156.1360 C.3     1  UNL1        0.1636
     12 C         140.1296  145.6405  157.5101 C.3     1  UNL1        0.1242
     13 N         143.9834  143.5605  161.6081 N.pl3   1  UNL1       -0.2780
     14 H         144.7398  144.0472  161.2079 H       1  UNL1        0.1555
     15 C         143.2234  139.1263  164.3723 C.3     1  UNL1        0.0399
     16 C         143.8843  140.2963  163.7059 C.ar    1  UNL1        0.0293
     17 C         145.3534  140.5995  163.7106 C.ar    1  UNL1        0.1030
     18 N         145.5693  141.8592  162.9254 N.ar    1  UNL1       -0.2228
     19 C         144.2337  142.3345  162.4353 C.ar    1  UNL1        0.1643
     20 S         143.1923  141.3686  162.9177 S.2     1  UNL1       -0.0557
     21 N         139.5731  145.5660  163.4862 N.pl3   1  UNL1       -0.2994
     22 H         139.4583  146.5359  163.6104 H       1  UNL1        0.1499
     23 C         138.9457  144.6067  164.4537 C.3     1  UNL1        0.1120
     24 C         138.5321  145.0785  165.8161 C.3     1  UNL1        0.0278
     25 C         138.7320  143.1755  164.0587 C.ar    1  UNL1        0.0769
     26 C         139.6501  142.1090  164.5780 C.ar    1  UNL1        0.0187
     27 C         139.4363  140.6778  164.1830 C.ar    1  UNL1        0.0325
     28 C         138.3045  140.3131  163.2687 C.ar    1  UNL1        0.1592
     29 F         138.0907  138.8819  162.8738 F       1  UNL1       -0.2025
     30 C         137.3863  141.3795  162.7494 C.ar    1  UNL1        0.1280
     31 N         137.6001  142.8108  163.1444 N.ar    1  UNL1       -0.2442
@<TRIPOS>BOND
     1    15    16    1
     2    16    17   ar
     3    17    18   ar
     4    18    19   ar
     5    19    13    1
     6    13     1    1
     7     1     2   ar
     8     2     3   ar
     9     3     7    1
    10     7     8    1
    11     8     9    1
    12     9    10    1
    13    10    11    1
    14    11    12    1
    15     3     4   ar
    16     4     5   ar
    17     5    21    1
    18    21    23    1
    19    23    24    1
    20    23    25    1
    21    25    26   ar
    22    26    27   ar
    23    27    28   ar
    24    28    29    1
    25    28    30   ar
    26    30    31   ar
    27     5     6   ar
    28    19    20   ar
    29    20    16   ar
    30     6     1   ar
    31    12     7    1
    32    31    25   ar
    33    13    14    1
    34    21    22    1
@<TRIPOS>MOLECULE
*****
 31 34 0 0 0
SMALL
GASTEIGER

@<TRIPOS>ATOM
      1 C         140.2191  143.0627  165.1309 C.ar    1  UNL1        0.1393
      2 C         140.3364  142.9248  166.6199 C.ar    1  UNL1        0.0689
      3 C         140.3170  141.5641  167.2509 C.ar    1  UNL1        0.1375
      4 N         140.1802  140.3414  166.3929 N.ar    1  UNL1       -0.1988
      5 C         140.0628  140.4793  164.9039 C.ar    1  UNL1        0.2194
      6 N         140.0823  141.8399  164.2729 N.ar    1  UNL1       -0.1986
      7 N         140.4343  141.4261  168.7400 N.pl3   1  UNL1       -0.2879
      8 C         141.0750  142.5169  169.5461 C.3     1  UNL1        0.1242
      9 C         141.1923  142.3789  171.0351 C.3     1  UNL1        0.1636
     10 O         140.6690  141.1502  171.7181 O.3     1  UNL1       -0.3501
     11 C         140.0283  140.0595  170.9120 C.3     1  UNL1        0.1636
     12 C         139.9109  140.1974  169.4229 C.3     1  UNL1        0.1242
     13 N         140.2386  144.4234  164.4999 N.pl3   1  UNL1       -0.2780
     14 H         139.9674  145.2124  165.0226 H       1  UNL1        0.1555
     15 C         140.2387  145.6116  159.3551 C.3     1  UNL1        0.0399
     16 C         140.6711  145.1282  160.7076 C.ar    1  UNL1        0.0293
     17 C         142.0023  144.5239  161.0439 C.ar    1  UNL1        0.1030
     18 N         142.0022  144.1863  162.5054 N.ar    1  UNL1       -0.2228
     19 C         140.6711  144.5820  163.0724 C.ar    1  UNL1        0.1643
     20 S         139.8485  145.1640  161.9613 S.2     1  UNL1       -0.0557
     21 N         139.9261  139.2565  164.0459 N.pl3   1  UNL1       -0.2994
     22 H         139.0356  138.8746  163.8716 H       1  UNL1        0.1499
     23 C         141.1460  138.6158  163.4534 C.3     1  UNL1        0.1120
     24 C         141.0550  137.2461  162.8487 C.3     1  UNL1        0.0278
     25 C         142.4570  139.3447  163.4655 C.ar    1  UNL1        0.0769
     26 C         143.5039  138.9884  164.4789 C.ar    1  UNL1        0.0187
     27 C         144.8148  139.7172  164.4911 C.ar    1  UNL1        0.0325
     28 C         145.0789  140.8025  163.4898 C.ar    1  UNL1        0.1592
     29 F         146.3898  141.5314  163.5020 F       1  UNL1       -0.2025
     30 C         144.0320  141.1589  162.4764 C.ar    1  UNL1        0.1280
     31 N         142.7210  140.4300  162.4643 N.ar    1  UNL1       -0.2442
@<TRIPOS>BOND
     1    15    16    1
     2    16    17   ar
     3    17    18   ar
     4    18    19   ar
     5    19    13    1
     6    13     1    1
     7     1     2   ar
     8     2     3   ar
     9     3     7    1
    10     7     8    1
    11     8     9    1
    12     9    10    1
    13    10    11    1
    14    11    12    1
    15     3     4   ar
    16     4     5   ar
    17     5    21    1
    18    21    23    1
    19    23    24    1
    20    23    25    1
    21    25    26   ar
    22    26    27   ar
    23    27    28   ar
    24    28    29    1
    25    28    30   ar
    26    30    31   ar
    27     5     6   ar
    28    19    20   ar
    29    20    16   ar
    30     6     1   ar
    31    12     7    1
    32    31    25   ar
    33    13    14    1
    34    21    22    1
@<TRIPOS>MOLECULE
*****
 31 34 0 0 0
SMALL
GASTEIGER

@<TRIPOS>ATOM
      1 C         141.5026  144.7041  161.7475 C.ar    1  UNL1        0.1393
      2 C         141.2868  144.8345  160.2689 C.ar    1  UNL1        0.0689
      3 C         140.0089  144.3487  159.6517 C.ar    1  UNL1        0.1375
      4 N         138.9468  143.7325  160.5132 N.ar    1  UNL1       -0.1988
      5 C         139.1626  143.6020  161.9919 C.ar    1  UNL1        0.2194
      6 N         140.4405  144.0878  162.6090 N.ar    1  UNL1       -0.1986
      7 N         139.7930  144.4792  158.1730 N.pl3   1  UNL1       -0.2879
      8 C         140.2521  145.7129  157.4540 C.3     1  UNL1        0.1242
      9 C         140.0363  145.8434  155.9754 C.3     1  UNL1        0.1636
     10 O         139.3613  144.7401  155.2157 O.3     1  UNL1       -0.3501
     11 C         138.9021  143.5063  155.9347 C.3     1  UNL1        0.1636
     12 C         139.1180  143.3759  157.4134 C.3     1  UNL1        0.1242
     13 N         142.7806  145.1899  162.3647 N.pl3   1  UNL1       -0.2780
     14 H         143.0812  146.1146  162.2107 H       1  UNL1        0.1555
     15 C         145.6451  141.0544  163.9687 C.3     1  UNL1        0.0399
     16 C         144.9172  142.3659  163.9537 C.ar    1  UNL1        0.0293
     17 C         144.8073  143.3265  165.1006 C.ar    1  UNL1        0.1030
     18 N         143.9935  144.5013  164.6449 N.ar    1  UNL1       -0.2228
     19 C         143.6005  144.2668  163.2164 C.ar    1  UNL1        0.1643
     20 S         144.1713  142.9470  162.7893 S.2     1  UNL1       -0.0557
     21 N         138.1005  142.9858  162.8534 N.pl3   1  UNL1       -0.2994
     22 H         137.3706  143.5426  163.2090 H       1  UNL1        0.1499
     23 C         138.1504  141.5211  163.1730 C.3     1  UNL1        0.1120
     24 C         137.7389  140.5136  162.1407 C.3     1  UNL1        0.0278
     25 C         138.6119  141.0638  164.5251 C.ar    1  UNL1        0.0769
     26 C         138.1483  139.7452  165.0694 C.ar    1  UNL1        0.0187
     27 C         138.6097  139.2879  166.4214 C.ar    1  UNL1        0.0325
     28 C         139.5346  140.1493  167.2292 C.ar    1  UNL1        0.1592
     29 F         139.9960  139.6920  168.5813 F       1  UNL1       -0.2025
     30 C         139.9982  141.4680  166.6850 C.ar    1  UNL1        0.1280
     31 N         139.5368  141.9252  165.3329 N.ar    1  UNL1       -0.2442
@<TRIPOS>BOND
     1    15    16    1
     2    16    17   ar
     3    17    18   ar
     4    18    19   ar
     5    19    13    1
     6    13     1    1
     7     1     2   ar
     8     2     3   ar
     9     3     7    1
    10     7     8    1
    11     8     9    1
    12     9    10    1
    13    10    11    1
    14    11    12    1
    15     3     4   ar
    16     4     5   ar
    17     5    21    1
    18    21    23    1
    19    23    24    1
    20    23    25    1
    21    25    26   ar
    22    26    27   ar
    23    27    28   ar
    24    28    29    1
    25    28    30   ar
    26    30    31   ar
    27     5     6   ar
    28    19    20   ar
    29    20    16   ar
    30     6     1   ar
    31    12     7    1
    32    31    25   ar
    33    13    14    1
    34    21    22    1
