@<TRIPOS>MOLECULE
*****
 39 44 0 0 0
SMALL
GASTEIGER

@<TRIPOS>ATOM
      1 C         140.7113  141.0205  163.4846 C.3     1  UNL1        0.0215
      2 C         141.6571  140.6692  164.5944 C.3     1  UNL1        0.0236
      3 C         140.5753  141.3494  165.3798 C.3     1  UNL1        0.0256
      4 C         140.7009  141.4843  166.8684 C.3     1  UNL1        0.0937
      5 N         141.9085  140.9391  167.5716 N.am    1  UNL1       -0.2795
      6 C         142.0341  141.0740  169.0603 C.2     1  UNL1        0.2247
      7 O         143.2417  140.5288  169.7635 O.2     1  UNL1       -0.2749
      8 C         142.9903  140.2589  166.7862 C.3     1  UNL1        0.0937
      9 C         142.8647  140.1239  165.2977 C.3     1  UNL1        0.0256
     10 C         142.4106  140.1109  163.4235 C.ar    1  UNL1       -0.0204
     11 C         142.5564  138.6266  163.2642 C.ar    1  UNL1       -0.0041
     12 C         143.3098  138.0684  162.0933 C.ar    1  UNL1        0.0020
     13 C         143.9174  138.9946  161.0819 C.ar    1  UNL1        0.0296
     14 C         143.7715  140.4790  161.2413 C.ar    1  UNL1        0.1398
     15 F         144.3791  141.4051  160.2299 F       1  UNL1       -0.2042
     16 C         143.0181  141.0371  162.4121 C.ar    1  UNL1        0.0254
     17 C         140.9522  141.7543  169.8456 C.3     1  UNL1        0.0691
     18 C         140.2376  140.4440  169.9957 C.3     1  UNL1        0.0091
     19 C         141.6670  143.0645  169.6954 C.3     1  UNL1        0.0091
     20 C         139.8703  142.4344  170.6309 C.3     1  UNL1        0.0091
     21 C         139.3988  140.3044  163.3626 C.3     1  UNL1        0.0723
     22 C         139.3134  140.2806  163.4921 C.3     1  UNL1        0.0893
     23 C         139.8257  138.8708  163.4744 C.3     1  UNL1        0.0386
     24 C         139.3972  137.9037  164.5380 C.3     1  UNL1        0.0594
     25 C         138.7306  137.3145  165.7457 C.3     1  UNL1        0.0174
     26 C         137.8918  138.3840  166.3802 C.3     1  UNL1        0.0174
     27 C         138.0400  139.6342  165.5647 C.3     1  UNL1        0.0594
     28 C         138.3728  140.7232  164.5734 C.3     1  UNL1        0.0386
     29 N         138.9705  139.3374  164.4262 N.3     1  UNL1       -0.2751
     30 C         140.0160  139.4246  160.7591 C.3     1  UNL1        0.0718
     31 C         140.1154  140.8987  161.0183 C.ar    1  UNL1        0.1207
     32 N         140.4764  142.1688  160.3067 N.ar    1  UNL1       -0.2309
     33 C         140.3259  143.3028  161.2770 C.ar    1  UNL1        0.0983
     34 C         140.5435  144.7801  161.1359 C.ar    1  UNL1        0.0206
     35 C         140.3073  145.6882  162.3062 C.ar    1  UNL1        0.0016
     36 C         139.8533  145.1188  163.6176 C.ar    1  UNL1        0.0016
     37 C         139.6356  143.6414  163.7587 C.ar    1  UNL1        0.0188
     38 C         139.8719  142.7334  162.5884 C.ar    1  UNL1        0.0785
     39 N         139.7419  141.2476  162.4285 N.ar    1  UNL1       -0.3167
@<TRIPOS>BOND
     1    30    31    1
     2    31    32   ar
     3    32    33   ar
     4    33    34   ar
     5    34    35   ar
     6    35    36   ar
     7    36    37   ar
     8    37    38   ar
     9    38    39   ar
    10    39    22    1
    11    22    23    1
    12    23    24    1
    13    24    25    1
    14    25    26    1
    15    26    27    1
    16    27    28    1
    17    27    29    1
    18    29    21    1
    19    21     1    1
    20     1     2    1
    21     2    10    1
    22    10    11   ar
    23    11    12   ar
    24    12    13   ar
    25    13    14   ar
    26    14    15    1
    27    14    16   ar
    28     2     3    1
    29     3     4    1
    30     4     5    1
    31     5     6   am
    32     6     7    2
    33     6    17    1
    34    17    18    1
    35    17    19    1
    36    17    20    1
    37     5     8    1
    38     8     9    1
    39    39    31   ar
    40    28    22    1
    41     9     2    1
    42    38    33   ar
    43    29    24    1
    44    16    10   ar
@<TRIPOS>MOLECULE
*****
 39 44 0 0 0
SMALL
GASTEIGER

@<TRIPOS>ATOM
      1 C         141.0563  141.6703  164.0734 C.3     1  UNL1        0.0215
      2 C         140.7073  142.3040  165.3873 C.3     1  UNL1        0.0236
      3 C         141.5568  141.1639  165.8655 C.3     1  UNL1        0.0256
      4 C         141.8043  140.9770  167.3331 C.3     1  UNL1        0.0937
      5 N         141.2023  141.9303  168.3225 N.am    1  UNL1       -0.2795
      6 C         141.4498  141.7434  169.7901 C.2     1  UNL1        0.2247
      7 O         140.8478  142.6966  170.7795 O.2     1  UNL1       -0.2749
      8 C         140.3528  143.0703  167.8443 C.3     1  UNL1        0.0937
      9 C         140.1053  143.2572  166.3768 C.3     1  UNL1        0.0256
     10 C         139.9790  143.2240  164.4528 C.ar    1  UNL1       -0.0204
     11 C         138.4793  143.2387  164.4322 C.ar    1  UNL1       -0.0041
     12 C         137.7510  144.1588  163.4977 C.ar    1  UNL1        0.0020
     13 C         138.5226  145.0641  162.5839 C.ar    1  UNL1        0.0296
     14 C         140.0224  145.0493  162.6045 C.ar    1  UNL1        0.1398
     15 F         140.7939  145.9546  161.6907 F       1  UNL1       -0.2042
     16 C         140.7506  144.1293  163.5390 C.ar    1  UNL1        0.0254
     17 C         142.2993  140.6033  170.2682 C.3     1  UNL1        0.0691
     18 C         141.0770  139.7417  170.3849 C.3     1  UNL1        0.0091
     19 C         143.5215  141.4650  170.1515 C.3     1  UNL1        0.0091
     20 C         143.1487  139.4632  170.7463 C.3     1  UNL1        0.0091
     21 C         140.4491  140.3530  163.6911 C.3     1  UNL1        0.0723
     22 C         140.4402  140.2316  163.7902 C.3     1  UNL1        0.0893
     23 C         139.0455  140.6888  164.0999 C.3     1  UNL1        0.0386
     24 C         138.2107  139.9322  165.0902 C.3     1  UNL1        0.0594
     25 C         137.7654  138.9145  166.0981 C.3     1  UNL1        0.0174
     26 C         138.8938  137.9497  166.3123 C.3     1  UNL1        0.0174
     27 C         140.0365  138.3711  165.4367 C.3     1  UNL1        0.0594
     28 C         140.9999  139.0178  164.4708 C.3     1  UNL1        0.0386
     29 N         139.6143  139.5964  164.6813 N.3     1  UNL1       -0.2751
     30 C         139.3122  141.4016  161.3297 C.3     1  UNL1        0.0718
     31 C         140.7838  141.6134  161.5280 C.ar    1  UNL1        0.1207
     32 N         141.9529  142.2640  160.8498 N.ar    1  UNL1       -0.2309
     33 C         143.1666  142.0409  161.7025 C.ar    1  UNL1        0.0983
     34 C         144.5991  142.4539  161.5372 C.ar    1  UNL1        0.0206
     35 C         145.6126  142.0783  162.5772 C.ar    1  UNL1        0.0016
     36 C         145.1937  141.2898  163.7825 C.ar    1  UNL1        0.0016
     37 C         143.7612  140.8768  163.9478 C.ar    1  UNL1        0.0188
     38 C         142.7477  141.2524  162.9078 C.ar    1  UNL1        0.0785
     39 N         141.2750  140.9882  162.8000 N.ar    1  UNL1       -0.3167
@<TRIPOS>BOND
     1    30    31    1
     2    31    32   ar
     3    32    33   ar
     4    33    34   ar
     5    34    35   ar
     6    35    36   ar
     7    36    37   ar
     8    37    38   ar
     9    38    39   ar
    10    39    22    1
    11    22    23    1
    12    23    24    1
    13    24    25    1
    14    25    26    1
    15    26    27    1
    16    27    28    1
    17    27    29    1
    18    29    21    1
    19    21     1    1
    20     1     2    1
    21     2    10    1
    22    10    11   ar
    23    11    12   ar
    24    12    13   ar
    25    13    14   ar
    26    14    15    1
    27    14    16   ar
    28     2     3    1
    29     3     4    1
    30     4     5    1
    31     5     6   am
    32     6     7    2
    33     6    17    1
    34    17    18    1
    35    17    19    1
    36    17    20    1
    37     5     8    1
    38     8     9    1
    39    39    31   ar
    40    28    22    1
    41     9     2    1
    42    38    33   ar
    43    29    24    1
    44    16    10   ar
@<TRIPOS>MOLECULE
*****
 39 44 0 0 0
SMALL
GASTEIGER

@<TRIPOS>ATOM
      1 C         141.0072  141.7481  163.4761 C.3     1  UNL1        0.0215
      2 C         140.4670  140.9530  164.6275 C.3     1  UNL1        0.0236
      3 C         141.2268  142.0091  165.3741 C.3     1  UNL1        0.0256
      4 C         141.2476  141.9992  166.8739 C.3     1  UNL1        0.0937
      5 N         140.5087  140.9331  167.6272 N.am    1  UNL1       -0.2795
      6 C         140.5295  140.9231  169.1270 C.2     1  UNL1        0.2247
      7 O         139.7906  139.8570  169.8803 O.2     1  UNL1       -0.2749
      8 C         139.7489  139.8769  166.8806 C.3     1  UNL1        0.0937
      9 C         139.7281  139.8868  165.3809 C.3     1  UNL1        0.0256
     10 C         139.8949  140.1729  163.4811 C.ar    1  UNL1       -0.0204
     11 C         138.4091  140.1081  163.2853 C.ar    1  UNL1       -0.0041
     12 C         137.8370  139.3281  162.1389 C.ar    1  UNL1        0.0020
     13 C         138.7507  138.6129  161.1883 C.ar    1  UNL1        0.0296
     14 C         140.2365  138.6777  161.3840 C.ar    1  UNL1        0.1398
     15 F         141.1500  137.9625  160.4334 F       1  UNL1       -0.2042
     16 C         140.8085  139.4577  162.5305 C.ar    1  UNL1        0.0254
     17 C         141.2893  141.9793  169.8735 C.3     1  UNL1        0.0691
     18 C         140.0442  142.8110  169.9636 C.3     1  UNL1        0.0091
     19 C         142.5342  141.1475  169.7833 C.3     1  UNL1        0.0091
     20 C         142.0490  143.0355  170.6200 C.3     1  UNL1        0.0091
     21 C         140.4620  143.1154  163.1875 C.3     1  UNL1        0.0723
     22 C         140.4246  143.2142  163.3037 C.3     1  UNL1        0.0893
     23 C         139.0051  142.7644  163.1224 C.3     1  UNL1        0.0386
     24 C         137.9208  143.3373  163.9862 C.3     1  UNL1        0.0594
     25 C         137.2025  144.1447  165.0265 C.3     1  UNL1        0.0174
     26 C         138.2156  144.9947  165.7345 C.3     1  UNL1        0.0174
     27 C         139.5599  144.7126  165.1318 C.3     1  UNL1        0.0594
     28 C         140.7597  144.2367  164.3487 C.3     1  UNL1        0.0386
     29 N         139.3777  143.6882  164.0512 N.3     1  UNL1       -0.2751
     30 C         139.9610  142.3959  160.5088 C.3     1  UNL1        0.0718
     31 C         141.3599  142.2010  161.0137 C.ar    1  UNL1        0.1207
     32 N         142.6916  141.6958  160.5431 N.ar    1  UNL1       -0.2309
     33 C         143.6636  141.8240  161.6783 C.ar    1  UNL1        0.0983
     34 C         145.1198  141.4841  161.7960 C.ar    1  UNL1        0.0206
     35 C         145.8451  141.7285  163.0860 C.ar    1  UNL1        0.0016
     36 C         145.1142  142.3129  164.2583 C.ar    1  UNL1        0.0016
     37 C         143.6580  142.6528  164.1406 C.ar    1  UNL1        0.0188
     38 C         142.9327  142.4084  162.8506 C.ar    1  UNL1        0.0785
     39 N         141.5090  142.6414  162.4399 N.ar    1  UNL1       -0.3167
@<TRIPOS>BOND
     1    30    31    1
     2    31    32   ar
     3    32    33   ar
     4    33    34   ar
     5    34    35   ar
     6    35    36   ar
     7    36    37   ar
     8    37    38   ar
     9    38    39   ar
    10    39    22    1
    11    22    23    1
    12    23    24    1
    13    24    25    1
    14    25    26    1
    15    26    27    1
    16    27    28    1
    17    27    29    1
    18    29    21    1
    19    21     1    1
    20     1     2    1
    21     2    10    1
    22    10    11   ar
    23    11    12   ar
    24    12    13   ar
    25    13    14   ar
    26    14    15    1
    27    14    16   ar
    28     2     3    1
    29     3     4    1
    30     4     5    1
    31     5     6   am
    32     6     7    2
    33     6    17    1
    34    17    18    1
    35    17    19    1
    36    17    20    1
    37     5     8    1
    38     8     9    1
    39    39    31   ar
    40    28    22    1
    41     9     2    1
    42    38    33   ar
    43    29    24    1
    44    16    10   ar
@<TRIPOS>MOLECULE
*****
 39 44 0 0 0
SMALL
GASTEIGER

@<TRIPOS>ATOM
      1 C         140.9306  143.0873  163.8476 C.3     1  UNL1        0.0215
      2 C         141.8459  142.7144  164.9758 C.3     1  UNL1        0.0236
      3 C         140.5786  142.9611  165.7394 C.3     1  UNL1        0.0256
      4 C         140.5564  142.7943  167.2299 C.3     1  UNL1        0.0937
      5 N         141.8016  142.3807  167.9569 N.am    1  UNL1       -0.2795
      6 C         141.7794  142.2138  169.4475 C.2     1  UNL1        0.2247
      7 O         143.0245  141.8003  170.1745 O.2     1  UNL1       -0.2749
      8 C         143.0689  142.1340  167.1934 C.3     1  UNL1        0.0937
      9 C         143.0911  142.3009  165.7029 C.3     1  UNL1        0.0256
     10 C         142.7955  142.5972  163.8205 C.ar    1  UNL1       -0.0204
     11 C         143.3067  143.8332  163.1415 C.ar    1  UNL1       -0.0041
     12 C         144.2562  143.7160  161.9861 C.ar    1  UNL1        0.0020
     13 C         144.6944  142.3627  161.5099 C.ar    1  UNL1        0.0296
     14 C         144.1831  141.1268  162.1889 C.ar    1  UNL1        0.1398
     15 F         144.6213  139.7737  161.7126 F       1  UNL1       -0.2042
     16 C         143.2336  141.2441  163.3442 C.ar    1  UNL1        0.0254
     17 C         140.5120  142.4605  170.2109 C.3     1  UNL1        0.0691
     18 C         140.7267  143.9401  170.0890 C.3     1  UNL1        0.0091
     19 C         140.2974  140.9810  170.3328 C.3     1  UNL1        0.0091
     20 C         139.2446  142.7073  170.9744 C.3     1  UNL1        0.0091
     21 C         139.7908  142.1852  163.4771 C.3     1  UNL1        0.0723
     22 C         139.7008  142.1151  163.5848 C.3     1  UNL1        0.0893
     23 C         140.5781  140.9098  163.4181 C.3     1  UNL1        0.0386
     24 C         140.3108  139.6708  164.2203 C.3     1  UNL1        0.0594
     25 C         139.6958  138.7014  165.1858 C.3     1  UNL1        0.0174
     26 C         138.5285  139.3778  165.8414 C.3     1  UNL1        0.0174
     27 C         138.4220  140.7651  165.2812 C.3     1  UNL1        0.0594
     28 C         138.5563  142.0812  164.5537 C.3     1  UNL1        0.0386
     29 N         139.5235  140.9463  164.2792 N.3     1  UNL1       -0.2751
     30 C         138.9875  144.8108  164.5438 C.3     1  UNL1        0.0718
     31 C         139.6389  144.7586  163.1936 C.ar    1  UNL1        0.1207
     32 N         140.0789  145.6785  162.0936 N.ar    1  UNL1       -0.2309
     33 C         140.6801  144.8426  161.0028 C.ar    1  UNL1        0.0983
     34 C         141.2810  145.2040  159.6768 C.ar    1  UNL1        0.0206
     35 C         141.8133  144.1287  158.7767 C.ar    1  UNL1        0.0016
     36 C         141.7448  142.6920  159.2026 C.ar    1  UNL1        0.0016
     37 C         141.1439  142.3307  160.5285 C.ar    1  UNL1        0.0188
     38 C         140.6116  143.4059  161.4287 C.ar    1  UNL1        0.0785
     39 N         139.9681  143.3540  162.7827 N.ar    1  UNL1       -0.3167
@<TRIPOS>BOND
     1    30    31    1
     2    31    32   ar
     3    32    33   ar
     4    33    34   ar
     5    34    35   ar
     6    35    36   ar
     7    36    37   ar
     8    37    38   ar
     9    38    39   ar
    10    39    22    1
    11    22    23    1
    12    23    24    1
    13    24    25    1
    14    25    26    1
    15    26    27    1
    16    27    28    1
    17    27    29    1
    18    29    21    1
    19    21     1    1
    20     1     2    1
    21     2    10    1
    22    10    11   ar
    23    11    12   ar
    24    12    13   ar
    25    13    14   ar
    26    14    15    1
    27    14    16   ar
    28     2     3    1
    29     3     4    1
    30     4     5    1
    31     5     6   am
    32     6     7    2
    33     6    17    1
    34    17    18    1
    35    17    19    1
    36    17    20    1
    37     5     8    1
    38     8     9    1
    39    39    31   ar
    40    28    22    1
    41     9     2    1
    42    38    33   ar
    43    29    24    1
    44    16    10   ar
@<TRIPOS>MOLECULE
*****
 39 44 0 0 0
SMALL
GASTEIGER

@<TRIPOS>ATOM
      1 C         140.7119  140.5204  164.2782 C.3     1  UNL1        0.0215
      2 C         141.7087  141.0642  165.2583 C.3     1  UNL1        0.0236
      3 C         140.4563  141.1643  166.0779 C.3     1  UNL1        0.0256
      4 C         140.5155  141.7078  167.4747 C.3     1  UNL1        0.0937
      5 N         141.8271  142.1512  168.0520 N.am    1  UNL1       -0.2795
      6 C         141.8863  142.6947  169.4488 C.2     1  UNL1        0.2247
      7 O         143.1978  143.1381  170.0261 O.2     1  UNL1       -0.2749
      8 C         143.0794  142.0511  167.2324 C.3     1  UNL1        0.0937
      9 C         143.0202  141.5076  165.8357 C.3     1  UNL1        0.0256
     10 C         142.6149  140.7752  164.0984 C.ar    1  UNL1       -0.0204
     11 C         143.3094  141.9007  163.3907 C.ar    1  UNL1       -0.0041
     12 C         144.2156  141.6117  162.2308 C.ar    1  UNL1        0.0020
     13 C         144.4272  140.1972  161.7787 C.ar    1  UNL1        0.0296
     14 C         143.7327  139.0717  162.4864 C.ar    1  UNL1        0.1398
     15 F         143.9444  137.6573  162.0342 F       1  UNL1       -0.2042
     16 C         142.8265  139.3608  163.6463 C.ar    1  UNL1        0.0254
     17 C         140.6339  142.7948  170.2683 C.3     1  UNL1        0.0691
     18 C         140.8450  141.3941  170.7618 C.3     1  UNL1        0.0091
     19 C         140.4229  144.1955  169.7747 C.3     1  UNL1        0.0091
     20 C         139.3815  142.8948  171.0878 C.3     1  UNL1        0.0091
     21 C         139.6437  141.4141  163.7209 C.3     1  UNL1        0.0723
     22 C         139.7111  141.5365  163.6495 C.3     1  UNL1        0.0893
     23 C         139.0597  142.4000  164.6889 C.3     1  UNL1        0.0386
     24 C         139.2626  143.8860  164.6640 C.3     1  UNL1        0.0594
     25 C         139.7242  145.2563  164.2650 C.3     1  UNL1        0.0174
     26 C         140.5935  145.1173  163.0505 C.3     1  UNL1        0.0174
     27 C         140.6692  143.6611  162.6988 C.3     1  UNL1        0.0594
     28 C         140.5653  142.1592  162.5853 C.3     1  UNL1        0.0386
     29 N         139.8466  142.9000  163.6960 N.3     1  UNL1       -0.2751
     30 C         140.5411  139.7843  161.4277 C.3     1  UNL1        0.0718
     31 C         139.8990  139.0890  162.5914 C.ar    1  UNL1        0.1207
     32 N         139.5112  137.7094  163.0344 N.ar    1  UNL1       -0.2309
     33 C         138.8808  137.8182  164.3911 C.ar    1  UNL1        0.0983
     34 C         138.3081  136.7868  165.3174 C.ar    1  UNL1        0.0206
     35 C         137.7337  137.2022  166.6393 C.ar    1  UNL1        0.0016
     36 C         137.7319  138.6491  167.0348 C.ar    1  UNL1        0.0016
     37 C         138.3045  139.6806  166.1085 C.ar    1  UNL1        0.0188
     38 C         138.8789  139.2651  164.7867 C.ar    1  UNL1        0.0785
     39 N         139.5082  140.0505  163.6744 N.ar    1  UNL1       -0.3167
@<TRIPOS>BOND
     1    30    31    1
     2    31    32   ar
     3    32    33   ar
     4    33    34   ar
     5    34    35   ar
     6    35    36   ar
     7    36    37   ar
     8    37    38   ar
     9    38    39   ar
    10    39    22    1
    11    22    23    1
    12    23    24    1
    13    24    25    1
    14    25    26    1
    15    26    27    1
    16    27    28    1
    17    27    29    1
    18    29    21    1
    19    21     1    1
    20     1     2    1
    21     2    10    1
    22    10    11   ar
    23    11    12   ar
    24    12    13   ar
    25    13    14   ar
    26    14    15    1
    27    14    16   ar
    28     2     3    1
    29     3     4    1
    30     4     5    1
    31     5     6   am
    32     6     7    2
    33     6    17    1
    34    17    18    1
    35    17    19    1
    36    17    20    1
    37     5     8    1
    38     8     9    1
    39    39    31   ar
    40    28    22    1
    41     9     2    1
    42    38    33   ar
    43    29    24    1
    44    16    10   ar
@<TRIPOS>MOLECULE
*****
 39 44 0 0 0
SMALL
GASTEIGER

@<TRIPOS>ATOM
      1 C         141.5694  140.5595  165.5471 C.3     1  UNL1        0.0215
      2 C         141.6132  141.9057  164.8870 C.3     1  UNL1        0.0236
      3 C         141.6211  141.0213  163.6755 C.3     1  UNL1        0.0256
      4 C         141.6647  141.6279  162.3043 C.3     1  UNL1        0.0937
      5 N         141.7004  143.1189  162.1446 N.am    1  UNL1       -0.2795
      6 C         141.7441  143.7255  160.7734 C.2     1  UNL1        0.2247
      7 O         141.7798  145.2166  160.6138 O.2     1  UNL1       -0.2749
      8 C         141.6925  144.0033  163.3561 C.3     1  UNL1        0.0937
      9 C         141.6489  143.3968  164.7273 C.3     1  UNL1        0.0256
     10 C         141.5901  142.3227  166.3278 C.ar    1  UNL1       -0.0204
     11 C         140.3426  142.9093  166.9189 C.ar    1  UNL1       -0.0041
     12 C         140.3195  143.3263  168.3596 C.ar    1  UNL1        0.0020
     13 C         141.5440  143.1565  169.2092 C.ar    1  UNL1        0.0296
     14 C         142.7916  142.5698  168.6180 C.ar    1  UNL1        0.1398
     15 F         144.0160  142.4001  169.4676 F       1  UNL1       -0.2042
     16 C         142.8145  142.1529  167.1773 C.ar    1  UNL1        0.0254
     17 C         141.7520  142.8410  159.5620 C.3     1  UNL1        0.0691
     18 C         140.2520  142.8380  159.5546 C.3     1  UNL1        0.0091
     19 C         143.2519  142.8441  159.5696 C.3     1  UNL1        0.0091
     20 C         141.7598  141.9565  158.3506 C.3     1  UNL1        0.0091
     21 C         140.3474  139.6994  165.4164 C.3     1  UNL1        0.0723
     22 C         140.2881  139.6666  165.2748 C.3     1  UNL1        0.0893
     23 C         139.2888  140.7562  165.5285 C.3     1  UNL1        0.0386
     24 C         138.2518  141.0786  164.4937 C.3     1  UNL1        0.0594
     25 C         137.4371  141.0540  163.2345 C.3     1  UNL1        0.0174
     26 C         137.9923  139.9821  162.3442 C.3     1  UNL1        0.0174
     27 C         139.1500  139.3441  163.0531 C.3     1  UNL1        0.0594
     28 C         140.2503  138.8995  163.9864 C.3     1  UNL1        0.0386
     29 N         139.3105  140.0218  164.3817 N.3     1  UNL1       -0.2751
     30 C         142.9569  138.6251  164.5759 C.3     1  UNL1        0.0718
     31 C         142.7020  138.8127  166.0422 C.ar    1  UNL1        0.1207
     32 N         143.3950  138.6367  167.3608 N.ar    1  UNL1       -0.2309
     33 C         142.4464  139.0594  168.4431 C.ar    1  UNL1        0.0983
     34 C         142.5823  139.1026  169.9363 C.ar    1  UNL1        0.0206
     35 C         141.4388  139.5831  170.7798 C.ar    1  UNL1        0.0016
     36 C         140.1595  140.0203  170.1301 C.ar    1  UNL1        0.0016
     37 C         140.0236  139.9771  168.6369 C.ar    1  UNL1        0.0188
     38 C         141.1671  139.4966  167.7934 C.ar    1  UNL1        0.0785
     39 N         141.3251  139.3441  166.3096 N.ar    1  UNL1       -0.3167
@<TRIPOS>BOND
     1    30    31    1
     2    31    32   ar
     3    32    33   ar
     4    33    34   ar
     5    34    35   ar
     6    35    36   ar
     7    36    37   ar
     8    37    38   ar
     9    38    39   ar
    10    39    22    1
    11    22    23    1
    12    23    24    1
    13    24    25    1
    14    25    26    1
    15    26    27    1
    16    27    28    1
    17    27    29    1
    18    29    21    1
    19    21     1    1
    20     1     2    1
    21     2    10    1
    22    10    11   ar
    23    11    12   ar
    24    12    13   ar
    25    13    14   ar
    26    14    15    1
    27    14    16   ar
    28     2     3    1
    29     3     4    1
    30     4     5    1
    31     5     6   am
    32     6     7    2
    33     6    17    1
    34    17    18    1
    35    17    19    1
    36    17    20    1
    37     5     8    1
    38     8     9    1
    39    39    31   ar
    40    28    22    1
    41     9     2    1
    42    38    33   ar
    43    29    24    1
    44    16    10   ar
@<TRIPOS>MOLECULE
*****
 39 44 0 0 0
SMALL
GASTEIGER

@<TRIPOS>ATOM
      1 C         141.1822  140.5496  164.1723 C.3     1  UNL1        0.0215
      2 C         140.2287  140.1304  165.2517 C.3     1  UNL1        0.0236
      3 C         141.2215  140.9043  166.0674 C.3     1  UNL1        0.0256
      4 C         141.0310  141.0408  167.5490 C.3     1  UNL1        0.0937
      5 N         139.8477  140.4035  168.2149 N.am    1  UNL1       -0.2795
      6 C         139.6572  140.5400  169.6965 C.2     1  UNL1        0.2247
      7 O         138.4738  139.9026  170.3624 O.2     1  UNL1       -0.2749
      8 C         138.8548  139.6296  167.3992 C.3     1  UNL1        0.0937
      9 C         139.0453  139.4931  165.9177 C.3     1  UNL1        0.0256
     10 C         139.5669  139.5021  164.0611 C.ar    1  UNL1       -0.0204
     11 C         139.9515  138.1168  163.6336 C.ar    1  UNL1       -0.0041
     12 C         139.2897  137.4884  162.4430 C.ar    1  UNL1        0.0020
     13 C         138.2434  138.2455  161.6801 C.ar    1  UNL1        0.0296
     14 C         137.8588  139.6310  162.1077 C.ar    1  UNL1        0.1398
     15 F         136.8126  140.3880  161.3448 F       1  UNL1       -0.2042
     16 C         138.5207  140.2592  163.2983 C.ar    1  UNL1        0.0254
     17 C         140.6501  141.3139  170.5121 C.3     1  UNL1        0.0691
     18 C         139.7987  142.5421  170.3830 C.3     1  UNL1        0.0091
     19 C         141.5014  140.0856  170.6411 C.3     1  UNL1        0.0091
     20 C         141.6429  142.0878  171.3277 C.3     1  UNL1        0.0091
     21 C         141.4152  142.0065  163.9016 C.3     1  UNL1        0.0723
     22 C         141.2894  142.0783  163.8410 C.3     1  UNL1        0.0893
     23 C         141.1697  142.8002  165.1505 C.3     1  UNL1        0.0386
     24 C         140.0621  143.7892  165.3631 C.3     1  UNL1        0.0594
     25 C         138.8538  144.6485  165.1361 C.3     1  UNL1        0.0174
     26 C         138.3525  144.3858  163.7470 C.3     1  UNL1        0.0174
     27 C         139.2510  143.3642  163.1154 C.3     1  UNL1        0.0594
     28 C         140.3015  142.3453  162.7444 C.3     1  UNL1        0.0386
     29 N         140.3076  142.9953  164.1142 N.3     1  UNL1       -0.2751
     30 C         143.6127  141.8854  165.6467 C.3     1  UNL1        0.0718
     31 C         143.6103  140.9246  164.4948 C.ar    1  UNL1        0.1207
     32 N         144.4489  139.8250  163.9138 N.ar    1  UNL1       -0.2309
     33 C         143.7539  139.3101  162.6883 C.ar    1  UNL1        0.0983
     34 C         144.1119  138.2307  161.7102 C.ar    1  UNL1        0.0206
     35 C         143.2018  137.9326  160.5558 C.ar    1  UNL1        0.0016
     36 C         141.9336  138.7141  160.3794 C.ar    1  UNL1        0.0016
     37 C         141.5756  139.7935  161.3574 C.ar    1  UNL1        0.0188
     38 C         142.4857  140.0915  162.5119 C.ar    1  UNL1        0.0785
     39 N         142.3970  141.0893  163.6283 N.ar    1  UNL1       -0.3167
@<TRIPOS>BOND
     1    30    31    1
     2    31    32   ar
     3    32    33   ar
     4    33    34   ar
     5    34    35   ar
     6    35    36   ar
     7    36    37   ar
     8    37    38   ar
     9    38    39   ar
    10    39    22    1
    11    22    23    1
    12    23    24    1
    13    24    25    1
    14    25    26    1
    15    26    27    1
    16    27    28    1
    17    27    29    1
    18    29    21    1
    19    21     1    1
    20     1     2    1
    21     2    10    1
    22    10    11   ar
    23    11    12   ar
    24    12    13   ar
    25    13    14   ar
    26    14    15    1
    27    14    16   ar
    28     2     3    1
    29     3     4    1
    30     4     5    1
    31     5     6   am
    32     6     7    2
    33     6    17    1
    34    17    18    1
    35    17    19    1
    36    17    20    1
    37     5     8    1
    38     8     9    1
    39    39    31   ar
    40    28    22    1
    41     9     2    1
    42    38    33   ar
    43    29    24    1
    44    16    10   ar
@<TRIPOS>MOLECULE
*****
 39 44 0 0 0
SMALL
GASTEIGER

@<TRIPOS>ATOM
      1 C         140.8303  141.0780  163.5287 C.3     1  UNL1        0.0215
      2 C         140.0991  140.7029  164.7835 C.3     1  UNL1        0.0236
      3 C         141.1343  141.6278  165.3518 C.3     1  UNL1        0.0256
      4 C         141.1669  141.9016  166.8263 C.3     1  UNL1        0.0937
      5 N         140.1644  141.2505  167.7324 N.am    1  UNL1       -0.2795
      6 C         140.1970  141.5243  169.2068 C.2     1  UNL1        0.2247
      7 O         139.1945  140.8732  170.1129 O.2     1  UNL1       -0.2749
      8 C         139.1292  140.3257  167.1640 C.3     1  UNL1        0.0937
      9 C         139.0966  140.0519  165.6896 C.3     1  UNL1        0.0256
     10 C         139.3179  139.9083  163.7793 C.ar    1  UNL1       -0.0204
     11 C         139.3263  138.4095  163.8384 C.ar    1  UNL1       -0.0041
     12 C         138.5451  137.6149  162.8343 C.ar    1  UNL1        0.0020
     13 C         137.7553  138.3192  161.7711 C.ar    1  UNL1        0.0296
     14 C         137.7469  139.8180  161.7120 C.ar    1  UNL1        0.1398
     15 F         136.9572  140.5222  160.6488 F       1  UNL1       -0.2042
     16 C         138.5282  140.6125  162.7162 C.ar    1  UNL1        0.0254
     17 C         141.2322  142.4492  169.7751 C.3     1  UNL1        0.0691
     18 C         140.3128  143.6137  169.5545 C.3     1  UNL1        0.0091
     19 C         142.1515  141.2847  169.9957 C.3     1  UNL1        0.0091
     20 C         142.2673  143.3742  170.3434 C.3     1  UNL1        0.0091
     21 C         142.2080  140.5418  163.2746 C.3     1  UNL1        0.0723
     22 C         142.3188  140.5364  163.3857 C.3     1  UNL1        0.0893
     23 C         141.9026  139.1142  163.6193 C.3     1  UNL1        0.0386
     24 C         142.5931  138.2932  164.6677 C.3     1  UNL1        0.0594
     25 C         143.5214  137.8734  165.7686 C.3     1  UNL1        0.0174
     26 C         144.4006  139.0415  166.1042 C.3     1  UNL1        0.0174
     27 C         144.0156  140.1832  165.2109 C.3     1  UNL1        0.0594
     28 C         143.4253  141.1374  164.2007 C.3     1  UNL1        0.0386
     29 N         142.8985  139.7208  164.3230 N.3     1  UNL1       -0.2751
     30 C         141.4298  139.4022  160.8130 C.3     1  UNL1        0.0718
     31 C         141.1450  140.8622  161.0064 C.ar    1  UNL1        0.1207
     32 N         140.5179  142.0164  160.2823 N.ar    1  UNL1       -0.2309
     33 C         140.6136  143.2250  161.1656 C.ar    1  UNL1        0.0983
     34 C         140.1645  144.6437  160.9775 C.ar    1  UNL1        0.0206
     35 C         140.4017  145.6551  162.0595 C.ar    1  UNL1        0.0016
     36 C         141.0880  145.2478  163.3296 C.ar    1  UNL1        0.0016
     37 C         141.5370  143.8290  163.5177 C.ar    1  UNL1        0.0188
     38 C         141.2999  142.8176  162.4357 C.ar    1  UNL1        0.0785
     39 N         141.6283  141.3573  162.3373 N.ar    1  UNL1       -0.3167
@<TRIPOS>BOND
     1    30    31    1
     2    31    32   ar
     3    32    33   ar
     4    33    34   ar
     5    34    35   ar
     6    35    36   ar
     7    36    37   ar
     8    37    38   ar
     9    38    39   ar
    10    39    22    1
    11    22    23    1
    12    23    24    1
    13    24    25    1
    14    25    26    1
    15    26    27    1
    16    27    28    1
    17    27    29    1
    18    29    21    1
    19    21     1    1
    20     1     2    1
    21     2    10    1
    22    10    11   ar
    23    11    12   ar
    24    12    13   ar
    25    13    14   ar
    26    14    15    1
    27    14    16   ar
    28     2     3    1
    29     3     4    1
    30     4     5    1
    31     5     6   am
    32     6     7    2
    33     6    17    1
    34    17    18    1
    35    17    19    1
    36    17    20    1
    37     5     8    1
    38     8     9    1
    39    39    31   ar
    40    28    22    1
    41     9     2    1
    42    38    33   ar
    43    29    24    1
    44    16    10   ar
@<TRIPOS>MOLECULE
*****
 39 44 0 0 0
SMALL
GASTEIGER

@<TRIPOS>ATOM
      1 C         140.2573  141.9450  163.2876 C.3     1  UNL1        0.0215
      2 C         140.3926  140.9871  164.4339 C.3     1  UNL1        0.0236
      3 C         140.6415  142.2832  165.1468 C.3     1  UNL1        0.0256
      4 C         140.9229  142.2867  166.6202 C.3     1  UNL1        0.0937
      5 N         140.9554  140.9942  167.3806 N.am    1  UNL1       -0.2795
      6 C         141.2368  140.9978  168.8540 C.2     1  UNL1        0.2247
      7 O         141.2694  139.7052  169.6145 O.2     1  UNL1       -0.2749
      8 C         140.7065  139.6981  166.6677 C.3     1  UNL1        0.0937
      9 C         140.4251  139.6945  165.1944 C.3     1  UNL1        0.0256
     10 C         140.0967  140.0236  163.3229 C.ar    1  UNL1       -0.0204
     11 C         141.1833  139.1384  162.7886 C.ar    1  UNL1       -0.0041
     12 C         140.8875  138.1749  161.6776 C.ar    1  UNL1        0.0020
     13 C         139.5049  138.0968  161.1010 C.ar    1  UNL1        0.0296
     14 C         138.4183  138.9821  161.6353 C.ar    1  UNL1        0.1398
     15 F         137.0358  138.9040  161.0587 F       1  UNL1       -0.2042
     16 C         138.7142  139.9455  162.7463 C.ar    1  UNL1        0.0254
     17 C         141.4857  142.2939  169.5668 C.3     1  UNL1        0.0691
     18 C         142.9367  142.2205  169.1935 C.3     1  UNL1        0.0091
     19 C         140.0348  142.3672  169.9401 C.3     1  UNL1        0.0091
     20 C         141.7347  143.5900  170.2797 C.3     1  UNL1        0.0091
     21 C         141.4530  142.7124  162.8063 C.3     1  UNL1        0.0723
     22 C         141.5468  142.7880  162.9069 C.3     1  UNL1        0.0893
     23 C         142.4567  141.5979  162.8282 C.3     1  UNL1        0.0386
     24 C         143.7310  141.5745  163.6190 C.3     1  UNL1        0.0594
     25 C         144.8458  141.9726  164.5404 C.3     1  UNL1        0.0174
     26 C         144.5310  143.3332  165.0879 C.3     1  UNL1        0.0174
     27 C         143.2217  143.7760  164.5050 C.3     1  UNL1        0.0594
     28 C         141.9115  143.9544  163.7765 C.3     1  UNL1        0.0386
     29 N         142.7273  142.6890  163.5971 N.3     1  UNL1       -0.2751
     30 C         139.1405  144.2287  163.8177 C.3     1  UNL1        0.0718
     31 C         139.0067  143.5165  162.5043 C.ar    1  UNL1        0.1207
     32 N         137.9921  143.2746  161.4263 N.ar    1  UNL1       -0.2309
     33 C         138.6308  142.4201  160.3719 C.ar    1  UNL1        0.0983
     34 C         138.1111  141.8658  159.0786 C.ar    1  UNL1        0.0206
     35 C         139.0008  141.0251  158.2116 C.ar    1  UNL1        0.0016
     36 C         140.4102  140.7388  158.6380 C.ar    1  UNL1        0.0016
     37 C         140.9298  141.2931  159.9312 C.ar    1  UNL1        0.0188
     38 C         140.0401  142.1338  160.7982 C.ar    1  UNL1        0.0785
     39 N         140.2725  142.8114  162.1161 N.ar    1  UNL1       -0.3167
@<TRIPOS>BOND
     1    30    31    1
     2    31    32   ar
     3    32    33   ar
     4    33    34   ar
     5    34    35   ar
     6    35    36   ar
     7    36    37   ar
     8    37    38   ar
     9    38    39   ar
    10    39    22    1
    11    22    23    1
    12    23    24    1
    13    24    25    1
    14    25    26    1
    15    26    27    1
    16    27    28    1
    17    27    29    1
    18    29    21    1
    19    21     1    1
    20     1     2    1
    21     2    10    1
    22    10    11   ar
    23    11    12   ar
    24    12    13   ar
    25    13    14   ar
    26    14    15    1
    27    14    16   ar
    28     2     3    1
    29     3     4    1
    30     4     5    1
    31     5     6   am
    32     6     7    2
    33     6    17    1
    34    17    18    1
    35    17    19    1
    36    17    20    1
    37     5     8    1
    38     8     9    1
    39    39    31   ar
    40    28    22    1
    41     9     2    1
    42    38    33   ar
    43    29    24    1
    44    16    10   ar
