@<TRIPOS>MOLECULE
*****
 28 30 0 0 0
SMALL
GASTEIGER

@<TRIPOS>ATOM
      1 O         140.2016  137.1769  162.7800 O.3     1  UNL1       -0.4577
      2 C         141.2386  137.9720  163.5167 C.ar    1  UNL1        0.2434
      3 C         142.6568  138.1905  163.0797 C.ar    1  UNL1        0.0739
      4 C         143.3342  139.0417  164.1125 C.ar    1  UNL1        0.0656
      5 C         144.7606  139.5041  164.0763 C.3     1  UNL1        0.0523
      6 N         142.3345  139.3493  165.1877 N.ar    1  UNL1       -0.2308
      7 N         141.0394  138.6882  164.8195 N.ar    1  UNL1       -0.1277
      8 C         142.5859  140.1733  166.4157 C.ar    1  UNL1        0.0834
      9 C         142.8976  141.6349  166.2872 C.ar    1  UNL1        0.0201
     10 C         143.1490  142.4589  167.5151 C.ar    1  UNL1        0.0138
     11 C         143.0887  141.8213  168.8715 C.ar    1  UNL1        0.0683
     12 CL        143.3400  142.6454  170.0994 Cl      1  UNL1       -0.0814
     13 C         142.7769  140.3596  169.0000 C.ar    1  UNL1        0.0697
     14 CL        142.7166  139.7221  170.3564 Cl      1  UNL1       -0.0813
     15 C         142.5256  139.5357  167.7721 C.ar    1  UNL1        0.0314
     16 C         139.3957  137.8215  161.6915 C.3     1  UNL1        0.2244
     17 C         138.1154  138.5286  162.0245 C.3     1  UNL1        0.1202
     18 C         138.1826  144.3696  163.3948 C.2     1  UNL1        0.4049
     19 O         138.0557  144.8061  164.8242 O.2     1  UNL1       -0.2262
     20 N         138.1658  142.9093  163.0522 N.am    1  UNL1       -0.2432
     21 C         138.2928  142.4728  161.6228 C.3     1  UNL1        0.1141
     22 C         138.2760  141.0126  161.2802 C.3     1  UNL1        0.0941
     23 N         138.1322  139.9888  162.3671 N.3     1  UNL1       -0.2666
     24 C         138.0053  140.4253  163.7965 C.3     1  UNL1        0.0941
     25 C         138.0221  141.8856  164.1391 C.3     1  UNL1        0.1141
     26 O         138.3264  145.3933  162.3080 O.3     1  UNL1       -0.4345
     27 C         140.8964  145.4404  162.6861 C.3     1  UNL1        0.0513
     28 C         139.6752  145.9696  161.9941 C.3     1  UNL1        0.2102
@<TRIPOS>BOND
     1    27    28    1
     2    28    26    1
     3    26    18    1
     4    18    19    2
     5    18    20   am
     6    20    21    1
     7    21    22    1
     8    22    23    1
     9    23    17    1
    10    17    16    1
    11    16     1    1
    12     1     2    1
    13     2     3   ar
    14     3     4   ar
    15     4     5    1
    16     4     6   ar
    17     6     8    1
    18     8     9   ar
    19     9    10   ar
    20    10    11   ar
    21    11    12    1
    22    11    13   ar
    23    13    14    1
    24    13    15   ar
    25     6     7   ar
    26    23    24    1
    27    24    25    1
    28    25    20    1
    29     7     2   ar
    30    15     8   ar
@<TRIPOS>MOLECULE
*****
 28 30 0 0 0
SMALL
GASTEIGER

@<TRIPOS>ATOM
      1 O         145.3621  141.4580  162.3580 O.3     1  UNL1       -0.4577
      2 C         144.6192  141.1055  163.6126 C.ar    1  UNL1        0.2434
      3 C         144.4466  139.7265  164.1771 C.ar    1  UNL1        0.0739
      4 C         143.6392  139.8388  165.4363 C.ar    1  UNL1        0.0656
      5 C         143.2301  138.7022  166.3256 C.3     1  UNL1        0.0523
      6 N         143.3127  141.2872  165.6499 N.ar    1  UNL1       -0.2308
      7 N         143.9183  142.0700  164.5228 N.ar    1  UNL1       -0.1277
      8 C         142.5197  141.8533  166.7904 C.ar    1  UNL1        0.0834
      9 C         141.0549  142.1288  166.6216 C.ar    1  UNL1        0.0201
     10 C         140.2620  142.6950  167.7621 C.ar    1  UNL1        0.0138
     11 C         140.9338  142.9855  169.0713 C.ar    1  UNL1        0.0683
     12 CL        140.1408  143.5516  170.2118 Cl      1  UNL1       -0.0814
     13 C         142.3987  142.7100  169.2402 C.ar    1  UNL1        0.0697
     14 CL        143.0705  143.0006  170.5494 Cl      1  UNL1       -0.0813
     15 C         143.1915  142.1439  168.0997 C.ar    1  UNL1        0.0314
     16 C         144.8687  142.5711  161.4819 C.3     1  UNL1        0.2244
     17 C         143.7257  142.3338  160.5401 C.3     1  UNL1        0.1202
     18 C         138.0757  142.7133  162.5235 C.2     1  UNL1        0.4049
     19 O         137.1642  141.5264  162.4227 O.2     1  UNL1       -0.2262
     20 N         139.4882  142.6184  162.0276 N.am    1  UNL1       -0.2432
     21 C         140.3998  143.8054  162.1283 C.3     1  UNL1        0.1141
     22 C         141.8123  143.7105  161.6325 C.3     1  UNL1        0.0941
     23 N         142.3132  142.4287  161.0359 N.3     1  UNL1       -0.2666
     24 C         141.4017  141.2417  160.9352 C.3     1  UNL1        0.0941
     25 C         139.9892  141.3366  161.4310 C.3     1  UNL1        0.1141
     26 O         137.5748  143.9952  163.1200 O.3     1  UNL1       -0.4345
     27 C         138.7739  144.8979  165.2407 C.3     1  UNL1        0.0513
     28 C         137.6105  144.1951  164.6062 C.3     1  UNL1        0.2102
@<TRIPOS>BOND
     1    27    28    1
     2    28    26    1
     3    26    18    1
     4    18    19    2
     5    18    20   am
     6    20    21    1
     7    21    22    1
     8    22    23    1
     9    23    17    1
    10    17    16    1
    11    16     1    1
    12     1     2    1
    13     2     3   ar
    14     3     4   ar
    15     4     5    1
    16     4     6   ar
    17     6     8    1
    18     8     9   ar
    19     9    10   ar
    20    10    11   ar
    21    11    12    1
    22    11    13   ar
    23    13    14    1
    24    13    15   ar
    25     6     7   ar
    26    23    24    1
    27    24    25    1
    28    25    20    1
    29     7     2   ar
    30    15     8   ar
@<TRIPOS>MOLECULE
*****
 28 30 0 0 0
SMALL
GASTEIGER

@<TRIPOS>ATOM
      1 O         137.3754  142.7614  163.1745 O.3     1  UNL1       -0.4577
      2 C         138.0144  141.6652  163.9747 C.ar    1  UNL1        0.2434
      3 C         137.8693  140.1930  163.7266 C.ar    1  UNL1        0.0739
      4 C         138.6758  139.4667  164.7620 C.ar    1  UNL1        0.0656
      5 C         138.8145  137.9784  164.8874 C.3     1  UNL1        0.0523
      6 N         139.3194  140.4901  165.6500 N.ar    1  UNL1       -0.2308
      7 N         138.9106  141.8488  165.1635 N.ar    1  UNL1       -0.1277
      8 C         140.2146  140.2048  166.8193 C.ar    1  UNL1        0.0834
      9 C         141.6573  139.8621  166.5933 C.ar    1  UNL1        0.0201
     10 C         142.5525  139.5768  167.7626 C.ar    1  UNL1        0.0138
     11 C         142.0050  139.6343  169.1579 C.ar    1  UNL1        0.0683
     12 CL        142.9002  139.3490  170.3272 Cl      1  UNL1       -0.0814
     13 C         140.5622  139.9771  169.3839 C.ar    1  UNL1        0.0697
     14 CL        140.0147  140.0346  170.7793 Cl      1  UNL1       -0.0813
     15 C         139.6671  140.2623  168.2147 C.ar    1  UNL1        0.0314
     16 C         137.6875  144.1955  163.4840 C.3     1  UNL1        0.2244
     17 C         138.8868  144.8521  162.8670 C.3     1  UNL1        0.1202
     18 C         144.2732  142.2385  163.2618 C.2     1  UNL1        0.4049
     19 O         145.1645  142.5306  164.4323 O.2     1  UNL1       -0.2262
     20 N         142.9266  142.8919  163.1631 N.am    1  UNL1       -0.2432
     21 C         142.0352  142.5998  161.9926 C.3     1  UNL1        0.1141
     22 C         140.6886  143.2532  161.8939 C.3     1  UNL1        0.0941
     23 N         140.2334  144.1987  162.9657 N.3     1  UNL1       -0.2666
     24 C         141.1247  144.4908  164.1362 C.3     1  UNL1        0.0941
     25 C         142.4713  143.8374  164.2349 C.3     1  UNL1        0.1141
     26 O         144.7284  141.2930  162.1900 O.3     1  UNL1       -0.4345
     27 C         143.9174  139.2772  163.6144 C.3     1  UNL1        0.0513
     28 C         144.4863  139.8200  162.3370 C.3     1  UNL1        0.2102
@<TRIPOS>BOND
     1    27    28    1
     2    28    26    1
     3    26    18    1
     4    18    19    2
     5    18    20   am
     6    20    21    1
     7    21    22    1
     8    22    23    1
     9    23    17    1
    10    17    16    1
    11    16     1    1
    12     1     2    1
    13     2     3   ar
    14     3     4   ar
    15     4     5    1
    16     4     6   ar
    17     6     8    1
    18     8     9   ar
    19     9    10   ar
    20    10    11   ar
    21    11    12    1
    22    11    13   ar
    23    13    14    1
    24    13    15   ar
    25     6     7   ar
    26    23    24    1
    27    24    25    1
    28    25    20    1
    29     7     2   ar
    30    15     8   ar
@<TRIPOS>MOLECULE
*****
 28 30 0 0 0
SMALL
GASTEIGER

@<TRIPOS>ATOM
      1 O         138.8251  137.4536  163.5513 O.3     1  UNL1       -0.4577
      2 C         139.8925  138.0104  164.4462 C.ar    1  UNL1        0.2434
      3 C         141.3109  137.5299  164.5313 C.ar    1  UNL1        0.0739
      4 C         142.0239  138.3680  165.5507 C.ar    1  UNL1        0.0656
      5 C         143.4621  138.2316  165.9544 C.3     1  UNL1        0.0523
      6 N         141.0461  139.3666  166.0956 N.ar    1  UNL1       -0.2308
      7 N         139.7288  139.1456  165.4129 N.ar    1  UNL1       -0.1277
      8 C         141.3349  140.4041  167.1398 C.ar    1  UNL1        0.0834
      9 C         142.6346  141.1525  167.1142 C.ar    1  UNL1        0.0201
     10 C         142.9233  142.1899  168.1584 C.ar    1  UNL1        0.0138
     11 C         141.9124  142.4789  169.2281 C.ar    1  UNL1        0.0683
     12 CL        142.2012  143.5163  170.2723 Cl      1  UNL1       -0.0814
     13 C         140.6127  141.7304  169.2538 C.ar    1  UNL1        0.0697
     14 CL        139.6018  142.0195  170.3236 Cl      1  UNL1       -0.0813
     15 C         140.3240  140.6931  168.2096 C.ar    1  UNL1        0.0314
     16 C         138.7198  137.9199  162.1295 C.3     1  UNL1        0.2244
     17 C         137.8711  139.1095  161.7913 C.3     1  UNL1        0.1202
     18 C         139.3992  144.5531  163.7994 C.2     1  UNL1        0.4049
     19 O         138.7139  145.1279  165.0035 O.2     1  UNL1       -0.2262
     20 N         139.0172  143.1922  163.2974 N.am    1  UNL1       -0.2432
     21 C         139.7024  142.6174  162.0932 C.3     1  UNL1        0.1141
     22 C         139.3204  141.2565  161.5912 C.3     1  UNL1        0.0941
     23 N         138.2532  140.4704  162.2933 N.3     1  UNL1       -0.2666
     24 C         137.5679  141.0452  163.4975 C.3     1  UNL1        0.0941
     25 C         137.9499  142.4061  163.9995 C.3     1  UNL1        0.1141
     26 O         140.4664  145.3392  163.0973 O.3     1  UNL1       -0.4345
     27 C         142.3487  144.0229  164.3114 C.3     1  UNL1        0.0513
     28 C         141.8949  145.2273  163.5410 C.3     1  UNL1        0.2102
@<TRIPOS>BOND
     1    27    28    1
     2    28    26    1
     3    26    18    1
     4    18    19    2
     5    18    20   am
     6    20    21    1
     7    21    22    1
     8    22    23    1
     9    23    17    1
    10    17    16    1
    11    16     1    1
    12     1     2    1
    13     2     3   ar
    14     3     4   ar
    15     4     5    1
    16     4     6   ar
    17     6     8    1
    18     8     9   ar
    19     9    10   ar
    20    10    11   ar
    21    11    12    1
    22    11    13   ar
    23    13    14    1
    24    13    15   ar
    25     6     7   ar
    26    23    24    1
    27    24    25    1
    28    25    20    1
    29     7     2   ar
    30    15     8   ar
@<TRIPOS>MOLECULE
*****
 28 30 0 0 0
SMALL
GASTEIGER

@<TRIPOS>ATOM
      1 O         144.7651  140.8418  162.1716 O.3     1  UNL1       -0.4577
      2 C         144.0873  140.1464  163.3149 C.ar    1  UNL1        0.2434
      3 C         144.7678  139.3681  164.4018 C.ar    1  UNL1        0.0739
      4 C         143.7112  138.8480  165.3307 C.ar    1  UNL1        0.0656
      5 C         143.9467  138.0169  166.5570 C.3     1  UNL1        0.0523
      6 N         142.3775  139.3048  164.8179 N.ar    1  UNL1       -0.2308
      7 N         142.6100  140.1073  163.5722 N.ar    1  UNL1       -0.1277
      8 C         141.0453  139.0108  165.4415 C.ar    1  UNL1        0.0834
      9 C         140.1129  138.0317  164.7920 C.ar    1  UNL1        0.0201
     10 C         138.7807  137.7377  165.4155 C.ar    1  UNL1        0.0138
     11 C         138.3811  138.4227  166.6887 C.ar    1  UNL1        0.0683
     12 CL        137.0489  138.1286  167.3122 Cl      1  UNL1       -0.0814
     13 C         139.3135  139.4018  167.3383 C.ar    1  UNL1        0.0697
     14 CL        138.9138  140.0868  168.6115 Cl      1  UNL1       -0.0813
     15 C         140.6456  139.6958  166.7147 C.ar    1  UNL1        0.0314
     16 C         145.4472  142.1592  162.3932 C.3     1  UNL1        0.2244
     17 C         144.6335  143.4127  162.5220 C.3     1  UNL1        0.1202
     18 C         138.6859  143.2210  161.7544 C.2     1  UNL1        0.4049
     19 O         138.1136  142.9307  160.3987 O.2     1  UNL1       -0.2262
     20 N         140.1728  143.2689  161.9463 N.am    1  UNL1       -0.2432
     21 C         140.7451  143.5593  163.3021 C.3     1  UNL1        0.1141
     22 C         142.2320  143.6072  163.4940 C.3     1  UNL1        0.0941
     23 N         143.1466  143.3648  162.3301 N.3     1  UNL1       -0.2666
     24 C         142.5744  143.0745  160.9743 C.3     1  UNL1        0.0941
     25 C         141.0874  143.0265  160.7824 C.3     1  UNL1        0.1141
     26 O         137.7713  143.4634  162.9183 O.3     1  UNL1       -0.4345
     27 C         137.6964  140.9685  163.6394 C.3     1  UNL1        0.0513
     28 C         137.6323  142.4251  163.9919 C.3     1  UNL1        0.2102
@<TRIPOS>BOND
     1    27    28    1
     2    28    26    1
     3    26    18    1
     4    18    19    2
     5    18    20   am
     6    20    21    1
     7    21    22    1
     8    22    23    1
     9    23    17    1
    10    17    16    1
    11    16     1    1
    12     1     2    1
    13     2     3   ar
    14     3     4   ar
    15     4     5    1
    16     4     6   ar
    17     6     8    1
    18     8     9   ar
    19     9    10   ar
    20    10    11   ar
    21    11    12    1
    22    11    13   ar
    23    13    14    1
    24    13    15   ar
    25     6     7   ar
    26    23    24    1
    27    24    25    1
    28    25    20    1
    29     7     2   ar
    30    15     8   ar
@<TRIPOS>MOLECULE
*****
 28 30 0 0 0
SMALL
GASTEIGER

@<TRIPOS>ATOM
      1 O         145.4997  141.4118  162.6561 O.3     1  UNL1       -0.4577
      2 C         144.5556  140.7874  163.6404 C.ar    1  UNL1        0.2434
      3 C         143.8239  139.4906  163.4595 C.ar    1  UNL1        0.0739
      4 C         142.9935  139.2519  164.6856 C.ar    1  UNL1        0.0656
      5 C         142.1012  138.0711  164.9301 C.3     1  UNL1        0.0523
      6 N         143.2120  140.4013  165.6244 N.ar    1  UNL1       -0.2308
      7 N         144.1775  141.3502  164.9784 N.ar    1  UNL1       -0.1277
      8 C         142.5767  140.5717  166.9725 C.ar    1  UNL1        0.0834
      9 C         142.6998  139.4878  168.0020 C.ar    1  UNL1        0.0201
     10 C         142.0644  139.6582  169.3501 C.ar    1  UNL1        0.0138
     11 C         141.3060  140.9125  169.6685 C.ar    1  UNL1        0.0683
     12 CL        140.6707  141.0829  171.0166 Cl      1  UNL1       -0.0814
     13 C         141.1829  141.9965  168.6389 C.ar    1  UNL1        0.0697
     14 CL        140.4245  143.2508  168.9575 Cl      1  UNL1       -0.0813
     15 C         141.8182  141.8260  167.2910 C.ar    1  UNL1        0.0314
     16 C         144.9950  142.4248  161.6716 C.3     1  UNL1        0.2244
     17 C         144.3029  143.6634  162.1582 C.3     1  UNL1        0.1202
     18 C         138.4315  143.5331  163.3866 C.2     1  UNL1        0.4049
     19 O         137.8822  144.3586  164.5121 O.2     1  UNL1       -0.2262
     20 N         139.8993  143.5657  163.0795 N.am    1  UNL1       -0.2432
     21 C         140.4486  142.7402  161.9540 C.3     1  UNL1        0.1141
     22 C         141.9165  142.7727  161.6469 C.3     1  UNL1        0.0941
     23 N         142.8351  143.6308  162.4653 N.3     1  UNL1       -0.2666
     24 C         142.2858  144.4563  163.5908 C.3     1  UNL1        0.0941
     25 C         140.8179  144.4238  163.8979 C.3     1  UNL1        0.1141
     26 O         137.5129  142.6750  162.5682 O.3     1  UNL1       -0.4345
     27 C         137.9803  140.6644  164.1459 C.3     1  UNL1        0.0513
     28 C         137.3257  141.2289  162.9199 C.3     1  UNL1        0.2102
@<TRIPOS>BOND
     1    27    28    1
     2    28    26    1
     3    26    18    1
     4    18    19    2
     5    18    20   am
     6    20    21    1
     7    21    22    1
     8    22    23    1
     9    23    17    1
    10    17    16    1
    11    16     1    1
    12     1     2    1
    13     2     3   ar
    14     3     4   ar
    15     4     5    1
    16     4     6   ar
    17     6     8    1
    18     8     9   ar
    19     9    10   ar
    20    10    11   ar
    21    11    12    1
    22    11    13   ar
    23    13    14    1
    24    13    15   ar
    25     6     7   ar
    26    23    24    1
    27    24    25    1
    28    25    20    1
    29     7     2   ar
    30    15     8   ar
@<TRIPOS>MOLECULE
*****
 28 30 0 0 0
SMALL
GASTEIGER

@<TRIPOS>ATOM
      1 O         138.5265  138.3640  163.4565 O.3     1  UNL1       -0.4577
      2 C         138.9020  139.5971  164.2237 C.ar    1  UNL1        0.2434
      3 C         138.4368  140.9930  163.9317 C.ar    1  UNL1        0.0739
      4 C         139.0559  141.9094  164.9450 C.ar    1  UNL1        0.0656
      5 C         138.8614  143.3945  165.0259 C.3     1  UNL1        0.0523
      6 N         139.9037  141.0799  165.8633 N.ar    1  UNL1       -0.2308
      7 N         139.8086  139.6508  165.4175 N.ar    1  UNL1       -0.1277
      8 C         140.7058  141.5899  167.0238 C.ar    1  UNL1        0.0834
      9 C         142.1926  141.7438  166.8979 C.ar    1  UNL1        0.0201
     10 C         142.9947  142.2538  168.0583 C.ar    1  UNL1        0.0138
     11 C         142.3100  142.6099  169.3445 C.ar    1  UNL1        0.0683
     12 CL        143.1121  143.1199  170.5049 Cl      1  UNL1       -0.0814
     13 C         140.8231  142.4560  169.4704 C.ar    1  UNL1        0.0697
     14 CL        140.1385  142.8121  170.7566 Cl      1  UNL1       -0.0813
     15 C         140.0212  141.9460  168.3100 C.ar    1  UNL1        0.0314
     16 C         139.2306  138.0355  162.1734 C.3     1  UNL1        0.2244
     17 C         140.6858  137.6722  162.1882 C.3     1  UNL1        0.1202
     18 C         144.8504  141.9799  162.5052 C.2     1  UNL1        0.4049
     19 O         146.1753  141.6963  163.1487 O.2     1  UNL1       -0.2262
     20 N         143.8093  140.9030  162.4260 N.am    1  UNL1       -0.2432
     21 C         142.4843  141.1866  161.7825 C.3     1  UNL1        0.1141
     22 C         141.4432  140.1096  161.7032 C.3     1  UNL1        0.0941
     23 N         141.7270  138.7491  162.2675 N.3     1  UNL1       -0.2666
     24 C         143.0519  138.4655  162.9110 C.3     1  UNL1        0.0941
     25 C         144.0930  139.5424  162.9902 C.3     1  UNL1        0.1141
     26 O         144.5666  143.3404  161.9409 O.3     1  UNL1       -0.4345
     27 C         143.7195  144.1650  164.2545 C.3     1  UNL1        0.0513
     28 C         144.1633  144.4612  162.8525 C.3     1  UNL1        0.2102
@<TRIPOS>BOND
     1    27    28    1
     2    28    26    1
     3    26    18    1
     4    18    19    2
     5    18    20   am
     6    20    21    1
     7    21    22    1
     8    22    23    1
     9    23    17    1
    10    17    16    1
    11    16     1    1
    12     1     2    1
    13     2     3   ar
    14     3     4   ar
    15     4     5    1
    16     4     6   ar
    17     6     8    1
    18     8     9   ar
    19     9    10   ar
    20    10    11   ar
    21    11    12    1
    22    11    13   ar
    23    13    14    1
    24    13    15   ar
    25     6     7   ar
    26    23    24    1
    27    24    25    1
    28    25    20    1
    29     7     2   ar
    30    15     8   ar
@<TRIPOS>MOLECULE
*****
 28 30 0 0 0
SMALL
GASTEIGER

@<TRIPOS>ATOM
      1 O         144.4211  139.5196  161.9186 O.3     1  UNL1       -0.4577
      2 C         144.1300  140.3800  163.1123 C.ar    1  UNL1        0.2434
      3 C         144.8272  141.6596  163.4679 C.ar    1  UNL1        0.0739
      4 C         144.2187  142.1824  164.7354 C.ar    1  UNL1        0.0656
      5 C         144.6140  143.4407  165.4497 C.3     1  UNL1        0.0523
      6 N         143.1454  141.2257  165.1631 N.ar    1  UNL1       -0.2308
      7 N         143.0906  140.1118  164.1600 N.ar    1  UNL1       -0.1277
      8 C         142.2790  141.3595  166.3803 C.ar    1  UNL1        0.0834
      9 C         141.3046  142.4951  166.4862 C.ar    1  UNL1        0.0201
     10 C         140.4382  142.6289  167.7034 C.ar    1  UNL1        0.0138
     11 C         140.5462  141.6272  168.8146 C.ar    1  UNL1        0.0683
     12 CL        139.6798  141.7610  170.0317 Cl      1  UNL1       -0.0814
     13 C         141.5206  140.4916  168.7087 C.ar    1  UNL1        0.0697
     14 CL        141.6286  139.4899  169.8200 Cl      1  UNL1       -0.0813
     15 C         142.3869  140.3579  167.4916 C.ar    1  UNL1        0.0314
     16 C         143.6244  138.2709  161.6819 C.3     1  UNL1        0.2244
     17 C         142.3827  138.3215  160.8419 C.3     1  UNL1        0.1202
     18 C         137.9457  142.0991  162.2712 C.2     1  UNL1        0.4049
     19 O         136.7659  141.6076  163.0563 O.2     1  UNL1       -0.2262
     20 N         139.0549  141.1547  161.9139 N.am    1  UNL1       -0.2432
     21 C         140.2347  141.6462  161.1288 C.3     1  UNL1        0.1141
     22 C         141.3440  140.7018  160.7714 C.3     1  UNL1        0.0941
     23 N         141.2734  139.2659  161.1992 N.3     1  UNL1       -0.2666
     24 C         140.0936  138.7744  161.9843 C.3     1  UNL1        0.0941
     25 C         138.9844  139.7188  162.3416 C.3     1  UNL1        0.1141
     26 O         138.0162  143.5351  161.8434 O.3     1  UNL1       -0.4345
     27 C         138.4477  144.3669  164.2666 C.3     1  UNL1        0.0513
     28 C         138.5529  144.5725  162.7845 C.3     1  UNL1        0.2102
@<TRIPOS>BOND
     1    27    28    1
     2    28    26    1
     3    26    18    1
     4    18    19    2
     5    18    20   am
     6    20    21    1
     7    21    22    1
     8    22    23    1
     9    23    17    1
    10    17    16    1
    11    16     1    1
    12     1     2    1
    13     2     3   ar
    14     3     4   ar
    15     4     5    1
    16     4     6   ar
    17     6     8    1
    18     8     9   ar
    19     9    10   ar
    20    10    11   ar
    21    11    12    1
    22    11    13   ar
    23    13    14    1
    24    13    15   ar
    25     6     7   ar
    26    23    24    1
    27    24    25    1
    28    25    20    1
    29     7     2   ar
    30    15     8   ar
@<TRIPOS>MOLECULE
*****
 28 30 0 0 0
SMALL
GASTEIGER

@<TRIPOS>ATOM
      1 O         138.2190  142.9963  160.5923 O.3     1  UNL1       -0.4577
      2 C         138.5031  143.1210  162.0599 C.ar    1  UNL1        0.2434
      3 C         138.1783  144.3038  162.9235 C.ar    1  UNL1        0.0739
      4 C         138.6363  143.9986  164.3189 C.ar    1  UNL1        0.0656
      5 C         138.5089  144.9055  165.5068 C.3     1  UNL1        0.0523
      6 N         139.2442  142.6273  164.3177 N.ar    1  UNL1       -0.2308
      7 N         139.1619  142.0849  162.9216 N.ar    1  UNL1       -0.1277
      8 C         139.8314  141.9221  165.5043 C.ar    1  UNL1        0.0834
      9 C         139.1493  140.7123  166.0709 C.ar    1  UNL1        0.0201
     10 C         139.7365  140.0071  167.2575 C.ar    1  UNL1        0.0138
     11 C         141.0056  140.5118  167.8775 C.ar    1  UNL1        0.0683
     12 CL        141.5928  139.8067  169.0641 Cl      1  UNL1       -0.0814
     13 C         141.6877  141.7217  167.3109 C.ar    1  UNL1        0.0697
     14 CL        142.9569  142.2264  167.9309 Cl      1  UNL1       -0.0813
     15 C         141.1006  142.4268  166.1243 C.ar    1  UNL1        0.0314
     16 C         138.3584  141.6669  159.9117 C.3     1  UNL1        0.2244
     17 C         139.6508  141.2969  159.2463 C.3     1  UNL1        0.1202
     18 C         144.6166  140.5670  162.5338 C.2     1  UNL1        0.4049
     19 O         145.6530  141.6504  162.5777 O.2     1  UNL1       -0.2262
     20 N         143.3751  140.7495  161.7119 N.am    1  UNL1       -0.2432
     21 C         142.3387  139.6660  161.6681 C.3     1  UNL1        0.1141
     22 C         141.0972  139.8485  160.8462 C.3     1  UNL1        0.0941
     23 N         140.8922  141.1144  160.0682 N.3     1  UNL1       -0.2666
     24 C         141.9286  142.1978  160.1120 C.3     1  UNL1        0.0941
     25 C         143.1701  142.0154  160.9339 C.3     1  UNL1        0.1141
     26 O         144.8216  139.3011  163.3119 O.3     1  UNL1       -0.4345
     27 C         143.1119  139.0160  165.2473 C.3     1  UNL1        0.0513
     28 C         144.5153  139.2650  164.7798 C.3     1  UNL1        0.2102
@<TRIPOS>BOND
     1    27    28    1
     2    28    26    1
     3    26    18    1
     4    18    19    2
     5    18    20   am
     6    20    21    1
     7    21    22    1
     8    22    23    1
     9    23    17    1
    10    17    16    1
    11    16     1    1
    12     1     2    1
    13     2     3   ar
    14     3     4   ar
    15     4     5    1
    16     4     6   ar
    17     6     8    1
    18     8     9   ar
    19     9    10   ar
    20    10    11   ar
    21    11    12    1
    22    11    13   ar
    23    13    14    1
    24    13    15   ar
    25     6     7   ar
    26    23    24    1
    27    24    25    1
    28    25    20    1
    29     7     2   ar
    30    15     8   ar
