@<TRIPOS>MOLECULE
*****
 19 21 0 0 0
SMALL
GASTEIGER

@<TRIPOS>ATOM
      1 C         142.7048  141.3730  168.6087 C.3     1  UNL1        0.0320
      2 C         142.3455  142.0212  167.3046 C.3     1  UNL1        0.1155
      3 C         143.4270  142.4969  166.3804 C.3     1  UNL1        0.0327
      4 C         143.0678  143.1451  165.0763 C.3     1  UNL1        0.0406
      5 C         144.1494  143.6208  164.1522 C.3     1  UNL1        0.0672
      6 S         143.7902  144.2690  162.8480 S.3     1  UNL1       -0.0807
      7 C         142.3493  144.4415  162.4680 C.2     1  UNL1        0.1482
      8 N         141.9901  145.0898  161.1639 N.pl3   1  UNL1       -0.3380
      9 N         141.2678  143.9659  163.3922 N.2     1  UNL1       -0.2484
     10 C         141.6271  143.3176  164.6963 C.3     1  UNL1        0.1336
     11 C         140.5456  142.8420  165.6204 C.3     1  UNL1        0.1685
     12 O         140.9048  142.1938  166.9245 O.3     1  UNL1       -0.3539
     13 H         142.7000  145.4020  160.5574 H       1  UNL1        0.1442
     14 H         141.0445  145.2030  160.9145 H       1  UNL1        0.1442
     15 C         140.1863  143.4902  164.3163 C.ar    1  UNL1        0.0072
     16 C         139.2437  144.5145  164.8751 C.ar    1  UNL1        0.0051
     17 C         137.9099  144.3261  164.2149 C.ar    1  UNL1        0.0352
     18 S         138.0284  143.1854  163.2480 S.2     1  UNL1       -0.0862
     19 C         139.4352  142.6688  163.3107 C.ar    1  UNL1        0.0330
@<TRIPOS>BOND
     1     2     1    1
     2     2     3    1
     3     4     3    1
     4     4     5    1
     5     5     6    1
     6     6     7    1
     7     7     8    1
     8     7     9    2
     9     9    10    1
    10    10    15    1
    11    15    16   ar
    12    16    17   ar
    13    17    18   ar
    14    18    19   ar
    15    10    11    1
    16    11    12    1
    17    12     2    1
    18    10     4    1
    19    19    15   ar
    20     8    13    1
    21     8    14    1
@<TRIPOS>MOLECULE
*****
 19 21 0 0 0
SMALL
GASTEIGER

@<TRIPOS>ATOM
      1 C         137.1589  137.8419  167.3600 C.3     1  UNL1        0.0320
      2 C         138.1127  138.9612  167.0644 C.3     1  UNL1        0.1155
      3 C         138.1775  139.5468  165.6850 C.3     1  UNL1        0.0327
      4 C         139.1313  140.6661  165.3894 C.3     1  UNL1        0.0406
      5 C         139.1961  141.2517  164.0098 C.3     1  UNL1        0.0672
      6 S         140.1499  142.3709  163.7142 S.3     1  UNL1       -0.0807
      7 C         141.0390  142.9046  164.7981 C.2     1  UNL1        0.1482
      8 N         141.9929  144.0239  164.5025 N.pl3   1  UNL1       -0.3380
      9 N         140.9743  142.3190  166.1775 N.2     1  UNL1       -0.2484
     10 C         140.0204  141.1997  166.4732 C.3     1  UNL1        0.1336
     11 C         139.9556  140.6142  167.8526 C.3     1  UNL1        0.1685
     12 O         139.0018  139.4949  168.1482 O.3     1  UNL1       -0.3539
     13 H         142.0354  144.4083  163.5971 H       1  UNL1        0.1442
     14 H         142.5764  144.3742  165.2139 H       1  UNL1        0.1442
     15 C         140.9095  141.7334  167.5570 C.ar    1  UNL1        0.0072
     16 C         140.4930  142.6540  168.6656 C.ar    1  UNL1        0.0051
     17 C         141.6973  142.9298  169.5163 C.ar    1  UNL1        0.0352
     18 S         142.8582  142.1796  168.9334 S.2     1  UNL1       -0.0862
     19 C         142.3713  141.4403  167.7225 C.ar    1  UNL1        0.0330
@<TRIPOS>BOND
     1     2     1    1
     2     2     3    1
     3     4     3    1
     4     4     5    1
     5     5     6    1
     6     6     7    1
     7     7     8    1
     8     7     9    2
     9     9    10    1
    10    10    15    1
    11    15    16   ar
    12    16    17   ar
    13    17    18   ar
    14    18    19   ar
    15    10    11    1
    16    11    12    1
    17    12     2    1
    18    10     4    1
    19    19    15   ar
    20     8    13    1
    21     8    14    1
@<TRIPOS>MOLECULE
*****
 19 21 0 0 0
SMALL
GASTEIGER

@<TRIPOS>ATOM
      1 C         138.3991  144.7800  165.2907 C.3     1  UNL1        0.0320
      2 C         139.7032  144.0786  165.0516 C.3     1  UNL1        0.1155
      3 C         140.7465  144.7119  164.1796 C.3     1  UNL1        0.0327
      4 C         142.0507  144.0104  163.9405 C.3     1  UNL1        0.0406
      5 C         143.0941  144.6438  163.0684 C.3     1  UNL1        0.0672
      6 S         144.3982  143.9424  162.8293 S.3     1  UNL1       -0.0807
      7 C         144.6590  142.6076  163.4623 C.2     1  UNL1        0.1482
      8 N         145.9632  141.9062  163.2231 N.pl3   1  UNL1       -0.3380
      9 N         143.6157  141.9743  164.3342 N.2     1  UNL1       -0.2484
     10 C         142.3115  142.6758  164.5733 C.3     1  UNL1        0.1336
     11 C         141.2682  142.0425  165.4453 C.3     1  UNL1        0.1685
     12 O         139.9640  142.7439  165.6844 O.3     1  UNL1       -0.3539
     13 H         146.6480  142.3218  162.6508 H       1  UNL1        0.1442
     14 H         146.1344  141.0302  163.6385 H       1  UNL1        0.1442
     15 C         142.5724  141.3411  165.2062 C.ar    1  UNL1        0.0072
     16 C         142.6888  141.0704  166.6770 C.ar    1  UNL1        0.0051
     17 C         142.9510  139.6046  166.8592 C.ar    1  UNL1        0.0352
     18 S         142.9965  138.9696  165.5010 S.2     1  UNL1       -0.0862
     19 C         142.7625  140.0427  164.4794 C.ar    1  UNL1        0.0330
@<TRIPOS>BOND
     1     2     1    1
     2     2     3    1
     3     4     3    1
     4     4     5    1
     5     5     6    1
     6     6     7    1
     7     7     8    1
     8     7     9    2
     9     9    10    1
    10    10    15    1
    11    15    16   ar
    12    16    17   ar
    13    17    18   ar
    14    18    19   ar
    15    10    11    1
    16    11    12    1
    17    12     2    1
    18    10     4    1
    19    19    15   ar
    20     8    13    1
    21     8    14    1
@<TRIPOS>MOLECULE
*****
 19 21 0 0 0
SMALL
GASTEIGER

@<TRIPOS>ATOM
      1 C         140.0214  140.2875  168.3213 C.3     1  UNL1        0.0320
      2 C         140.6705  140.9984  167.1709 C.3     1  UNL1        0.1155
      3 C         140.0093  142.1991  166.5619 C.3     1  UNL1        0.0327
      4 C         140.6583  142.9099  165.4115 C.3     1  UNL1        0.0406
      5 C         139.9970  144.1107  164.8025 C.3     1  UNL1        0.0672
      6 S         140.6460  144.8216  163.6521 S.3     1  UNL1       -0.0807
      7 C         141.9564  144.3317  163.1108 C.2     1  UNL1        0.1482
      8 N         142.6055  145.0426  161.9604 N.pl3   1  UNL1       -0.3380
      9 N         142.6177  143.1310  163.7198 N.2     1  UNL1       -0.2484
     10 C         141.9686  142.4201  164.8702 C.3     1  UNL1        0.1336
     11 C         142.6299  141.2194  165.4792 C.3     1  UNL1        0.1685
     12 O         141.9808  140.5085  166.6296 O.3     1  UNL1       -0.3539
     13 H         142.1715  145.8307  161.5606 H       1  UNL1        0.1442
     14 H         143.4655  144.7211  161.6051 H       1  UNL1        0.1442
     15 C         143.2790  141.9303  164.3289 C.ar    1  UNL1        0.0072
     16 C         144.6260  142.5306  164.6030 C.ar    1  UNL1        0.0051
     17 C         145.6519  141.7254  163.8619 C.ar    1  UNL1        0.0352
     18 S         144.9389  140.6274  163.1296 S.2     1  UNL1       -0.0862
     19 C         143.4724  140.7540  163.4182 C.ar    1  UNL1        0.0330
@<TRIPOS>BOND
     1     2     1    1
     2     2     3    1
     3     4     3    1
     4     4     5    1
     5     5     6    1
     6     6     7    1
     7     7     8    1
     8     7     9    2
     9     9    10    1
    10    10    15    1
    11    15    16   ar
    12    16    17   ar
    13    17    18   ar
    14    18    19   ar
    15    10    11    1
    16    11    12    1
    17    12     2    1
    18    10     4    1
    19    19    15   ar
    20     8    13    1
    21     8    14    1
@<TRIPOS>MOLECULE
*****
 19 21 0 0 0
SMALL
GASTEIGER

@<TRIPOS>ATOM
      1 C         138.4613  138.6722  165.8142 C.3     1  UNL1        0.0320
      2 C         139.1220  139.9229  165.3150 C.3     1  UNL1        0.1155
      3 C         138.2875  141.0558  164.7952 C.3     1  UNL1        0.0327
      4 C         138.9482  142.3065  164.2960 C.3     1  UNL1        0.0406
      5 C         138.1137  143.4394  163.7762 C.3     1  UNL1        0.0672
      6 S         138.7744  144.6901  163.2770 S.3     1  UNL1       -0.0807
      7 C         140.2697  144.8079  163.2977 C.2     1  UNL1        0.1482
      8 N         140.9304  146.0586  162.7985 N.pl3   1  UNL1       -0.3380
      9 N         141.1041  143.6750  163.8175 N.2     1  UNL1       -0.2484
     10 C         140.4434  142.4243  164.3167 C.3     1  UNL1        0.1336
     11 C         141.2779  141.2915  164.8365 C.3     1  UNL1        0.1685
     12 O         140.6172  140.0408  165.3357 O.3     1  UNL1       -0.3539
     13 H         140.3827  146.8021  162.4573 H       1  UNL1        0.1442
     14 H         141.9118  146.1359  162.8120 H       1  UNL1        0.1442
     15 C         141.9386  142.5422  164.3373 C.ar    1  UNL1        0.0072
     16 C         142.7912  142.7345  165.5564 C.ar    1  UNL1        0.0051
     17 C         144.2233  142.7996  165.1150 C.ar    1  UNL1        0.0352
     18 S         144.2559  142.6474  163.6230 S.2     1  UNL1       -0.0862
     19 C         142.8439  142.4884  163.1424 C.ar    1  UNL1        0.0330
@<TRIPOS>BOND
     1     2     1    1
     2     2     3    1
     3     4     3    1
     4     4     5    1
     5     5     6    1
     6     6     7    1
     7     7     8    1
     8     7     9    2
     9     9    10    1
    10    10    15    1
    11    15    16   ar
    12    16    17   ar
    13    17    18   ar
    14    18    19   ar
    15    10    11    1
    16    11    12    1
    17    12     2    1
    18    10     4    1
    19    19    15   ar
    20     8    13    1
    21     8    14    1
@<TRIPOS>MOLECULE
*****
 19 21 0 0 0
SMALL
GASTEIGER

@<TRIPOS>ATOM
      1 C         137.7367  138.5414  166.8026 C.3     1  UNL1        0.0320
      2 C         138.9758  138.9187  166.0461 C.3     1  UNL1        0.1155
      3 C         139.4844  138.0309  164.9493 C.3     1  UNL1        0.0327
      4 C         140.7235  138.4082  164.1929 C.3     1  UNL1        0.0406
      5 C         141.2322  137.5203  163.0960 C.3     1  UNL1        0.0672
      6 S         142.4713  137.8976  162.3395 S.3     1  UNL1       -0.0807
      7 C         143.2018  139.1627  162.6799 C.2     1  UNL1        0.1482
      8 N         144.4409  139.5400  161.9235 N.pl3   1  UNL1       -0.3380
      9 N         142.6931  140.0505  163.7768 N.2     1  UNL1       -0.2484
     10 C         141.4540  139.6732  164.5332 C.3     1  UNL1        0.1336
     11 C         140.9454  140.5610  165.6301 C.3     1  UNL1        0.1685
     12 O         139.7063  140.1837  166.3865 O.3     1  UNL1       -0.3539
     13 H         144.7747  138.9573  161.2036 H       1  UNL1        0.1442
     14 H         144.9203  140.3704  162.1469 H       1  UNL1        0.1442
     15 C         142.1845  140.9383  164.8736 C.ar    1  UNL1        0.0072
     16 C         142.9701  141.1933  166.1258 C.ar    1  UNL1        0.0051
     17 C         143.5288  142.5832  166.0476 C.ar    1  UNL1        0.0352
     18 S         143.0886  143.1873  164.7471 S.2     1  UNL1       -0.0862
     19 C         142.2578  142.1707  164.0215 C.ar    1  UNL1        0.0330
@<TRIPOS>BOND
     1     2     1    1
     2     2     3    1
     3     4     3    1
     4     4     5    1
     5     5     6    1
     6     6     7    1
     7     7     8    1
     8     7     9    2
     9     9    10    1
    10    10    15    1
    11    15    16   ar
    12    16    17   ar
    13    17    18   ar
    14    18    19   ar
    15    10    11    1
    16    11    12    1
    17    12     2    1
    18    10     4    1
    19    19    15   ar
    20     8    13    1
    21     8    14    1
@<TRIPOS>MOLECULE
*****
 19 21 0 0 0
SMALL
GASTEIGER

@<TRIPOS>ATOM
      1 C         143.9847  143.7471  164.5691 C.3     1  UNL1        0.0320
      2 C         143.0254  142.8244  165.2607 C.3     1  UNL1        0.1155
      3 C         141.7718  142.3858  164.5635 C.3     1  UNL1        0.0327
      4 C         140.8125  141.4632  165.2552 C.3     1  UNL1        0.0406
      5 C         139.5588  141.0246  164.5579 C.3     1  UNL1        0.0672
      6 S         138.5995  140.1020  165.2496 S.3     1  UNL1       -0.0807
      7 C         138.8938  139.6179  166.6386 C.2     1  UNL1        0.1482
      8 N         137.9345  138.6952  167.3302 N.pl3   1  UNL1       -0.3380
      9 N         140.1474  140.0565  167.3358 N.2     1  UNL1       -0.2484
     10 C         141.1067  140.9791  166.6441 C.3     1  UNL1        0.1336
     11 C         142.3603  141.4177  167.3413 C.3     1  UNL1        0.1685
     12 O         143.3197  142.3403  166.6496 O.3     1  UNL1       -0.3539
     13 H         137.1117  138.4074  166.8726 H       1  UNL1        0.1442
     14 H         138.1277  138.3775  168.2418 H       1  UNL1        0.1442
     15 C         141.4010  140.4950  168.0330 C.ar    1  UNL1        0.0072
     16 C         142.4328  139.4738  168.4107 C.ar    1  UNL1        0.0051
     17 C         142.3846  139.2948  169.8993 C.ar    1  UNL1        0.0352
     18 S         141.3230  140.2054  170.4415 S.2     1  UNL1       -0.0862
     19 C         140.7151  140.9471  169.2881 C.ar    1  UNL1        0.0330
@<TRIPOS>BOND
     1     2     1    1
     2     2     3    1
     3     4     3    1
     4     4     5    1
     5     5     6    1
     6     6     7    1
     7     7     8    1
     8     7     9    2
     9     9    10    1
    10    10    15    1
    11    15    16   ar
    12    16    17   ar
    13    17    18   ar
    14    18    19   ar
    15    10    11    1
    16    11    12    1
    17    12     2    1
    18    10     4    1
    19    19    15   ar
    20     8    13    1
    21     8    14    1
@<TRIPOS>MOLECULE
*****
 19 21 0 0 0
SMALL
GASTEIGER

@<TRIPOS>ATOM
      1 C         140.1346  140.2081  168.5312 C.3     1  UNL1        0.0320
      2 C         139.7332  140.3389  167.0918 C.3     1  UNL1        0.1155
      3 C         139.5027  139.1103  166.2628 C.3     1  UNL1        0.0327
      4 C         139.1013  139.2412  164.8234 C.3     1  UNL1        0.0406
      5 C         138.8707  138.0125  163.9944 C.3     1  UNL1        0.0672
      6 S         138.4694  138.1434  162.5551 S.3     1  UNL1       -0.0807
      7 C         138.2986  139.5029  161.9447 C.2     1  UNL1        0.1482
      8 N         137.8972  139.6338  160.5053 N.pl3   1  UNL1       -0.3380
      9 N         138.5291  140.7315  162.7737 N.2     1  UNL1       -0.2484
     10 C         138.9305  140.6007  164.2131 C.3     1  UNL1        0.1336
     11 C         139.1611  141.8293  165.0421 C.3     1  UNL1        0.1685
     12 O         139.5625  141.6984  166.4815 O.3     1  UNL1       -0.3539
     13 H         137.7458  138.8274  159.9612 H       1  UNL1        0.1442
     14 H         137.7851  140.5261  160.1047 H       1  UNL1        0.1442
     15 C         138.7597  141.9602  163.6027 C.ar    1  UNL1        0.0072
     16 C         137.5971  142.8833  163.8175 C.ar    1  UNL1        0.0051
     17 C         137.8404  144.1290  163.0179 C.ar    1  UNL1        0.0352
     18 S         139.1534  143.9756  162.3089 S.2     1  UNL1       -0.0862
     19 C         139.7215  142.6352  162.6703 C.ar    1  UNL1        0.0330
@<TRIPOS>BOND
     1     2     1    1
     2     2     3    1
     3     4     3    1
     4     4     5    1
     5     5     6    1
     6     6     7    1
     7     7     8    1
     8     7     9    2
     9     9    10    1
    10    10    15    1
    11    15    16   ar
    12    16    17   ar
    13    17    18   ar
    14    18    19   ar
    15    10    11    1
    16    11    12    1
    17    12     2    1
    18    10     4    1
    19    19    15   ar
    20     8    13    1
    21     8    14    1
@<TRIPOS>MOLECULE
*****
 19 21 0 0 0
SMALL
GASTEIGER

@<TRIPOS>ATOM
      1 C         145.3189  142.0936  163.9874 C.3     1  UNL1        0.0320
      2 C         143.8424  142.3092  163.8336 C.3     1  UNL1        0.1155
      3 C         143.3246  143.6259  163.3355 C.3     1  UNL1        0.0327
      4 C         141.8482  143.8416  163.1818 C.3     1  UNL1        0.0406
      5 C         141.3305  145.1584  162.6836 C.3     1  UNL1        0.0672
      6 S         139.8540  145.3740  162.5299 S.3     1  UNL1       -0.0807
      7 C         138.8954  144.2729  162.8742 C.2     1  UNL1        0.1482
      8 N         137.4189  144.4885  162.7205 N.pl3   1  UNL1       -0.3380
      9 N         139.4131  142.9562  163.3724 N.2     1  UNL1       -0.2484
     10 C         140.8896  142.7405  163.5261 C.3     1  UNL1        0.1336
     11 C         141.4073  141.4238  164.0242 C.3     1  UNL1        0.1685
     12 O         142.8838  141.2082  164.1780 O.3     1  UNL1       -0.3539
     13 H         137.0791  145.3527  162.3936 H       1  UNL1        0.1442
     14 H         136.7897  143.7659  162.9465 H       1  UNL1        0.1442
     15 C         139.9309  141.6395  163.8705 C.ar    1  UNL1        0.0072
     16 C         139.1658  141.5058  165.1538 C.ar    1  UNL1        0.0051
     17 C         138.3310  140.2624  165.0684 C.ar    1  UNL1        0.0352
     18 S         138.5802  139.6276  163.7323 S.2     1  UNL1       -0.0862
     19 C         139.5689  140.4787  162.9920 C.ar    1  UNL1        0.0330
@<TRIPOS>BOND
     1     2     1    1
     2     2     3    1
     3     4     3    1
     4     4     5    1
     5     5     6    1
     6     6     7    1
     7     7     8    1
     8     7     9    2
     9     9    10    1
    10    10    15    1
    11    15    16   ar
    12    16    17   ar
    13    17    18   ar
    14    18    19   ar
    15    10    11    1
    16    11    12    1
    17    12     2    1
    18    10     4    1
    19    19    15   ar
    20     8    13    1
    21     8    14    1
