@<TRIPOS>MOLECULE
*****
 34 38 0 0 0
SMALL
GASTEIGER

@<TRIPOS>ATOM
      1 N         139.8656  138.3149  161.8637 N.3     1  UNL1       -0.2703
      2 C         139.0957  139.1000  162.8839 C.3     1  UNL1        0.0727
      3 C         139.7015  139.3820  164.2268 C.3     1  UNL1        0.0260
      4 C         141.0773  138.8789  164.5495 C.3     1  UNL1        0.0737
      5 C         141.8472  138.0938  163.5294 C.3     1  UNL1        0.0260
      6 C         141.2414  137.8118  162.1865 C.3     1  UNL1        0.0727
      7 C         142.4356  138.4429  165.0131 C.3     1  UNL1        0.0306
      8 C         142.6290  138.9410  166.4148 C.3     1  UNL1        0.0987
      9 N         141.3901  139.6847  166.8175 N.am    1  UNL1       -0.2573
     10 C         140.4311  139.6463  165.6648 C.2     1  UNL1        0.2286
     11 O         139.0657  140.2665  165.6327 O.2     1  UNL1       -0.2746
     12 C         141.1520  140.3500  168.1406 C.ar    1  UNL1        0.0713
     13 C         139.9269  140.0153  168.9387 C.ar    1  UNL1        0.0213
     14 C         139.6888  140.6806  170.2619 C.ar    1  UNL1        0.0621
     15 C         140.6759  141.6806  170.7869 C.ar    1  UNL1        0.2611
     16 O         140.4378  142.3459  172.1101 O.2     1  UNL1       -0.2670
     17 N         141.9011  142.0153  169.9888 N.ar    1  UNL1       -0.2910
     18 C         142.8882  143.0153  170.5138 C.3     1  UNL1        0.1336
     19 C         142.1391  141.3500  168.6656 C.ar    1  UNL1        0.0933
     20 C         139.2598  138.0329  160.5208 C.3     1  UNL1        0.1063
     21 C         139.4319  139.0141  159.3994 C.3     1  UNL1        0.1483
     22 O         139.4054  138.5394  157.9767 O.3     1  UNL1       -0.3786
     23 H         139.5301  139.2950  157.3814 H       1  UNL1        0.2108
     24 C         142.1992  140.1715  159.4512 C.3     1  UNL1        0.0306
     25 C         141.0141  141.0488  159.7265 C.ar    1  UNL1       -0.0238
     26 C         139.6305  140.4701  159.7006 C.ar    1  UNL1        0.0015
     27 C         138.4453  141.3475  159.9760 C.ar    1  UNL1       -0.0020
     28 C         138.6438  142.8034  160.2772 C.ar    1  UNL1        0.0060
     29 C         140.0275  143.3820  160.3031 C.ar    1  UNL1        0.0748
     30 C         141.2126  142.5047  160.0278 C.ar    1  UNL1        0.0233
     31 C         142.4476  143.3508  160.1223 C.3     1  UNL1        0.2352
     32 O         142.0257  144.7511  160.4561 O.3     1  UNL1       -0.4404
     33 C         140.5300  144.7703  160.5678 C.2     1  UNL1        0.3413
     34 O         139.6852  145.9677  160.8881 O.2     1  UNL1       -0.2449
@<TRIPOS>BOND
     1    24    25    1
     2    25    26   ar
     3    26    21    1
     4    21    22    1
     5    21    20    1
     6    20     1    1
     7     1     2    1
     8     2     3    1
     9     3     4    1
    10     4     5    1
    11     5     6    1
    12     4     7    1
    13     7     8    1
    14     8     9    1
    15     9    12    1
    16    12    13   ar
    17    13    14   ar
    18    14    15   ar
    19    15    16    2
    20    15    17   ar
    21    17    18    1
    22    17    19   ar
    23     9    10   am
    24    10    11    2
    25    26    27   ar
    26    27    28   ar
    27    28    29   ar
    28    29    30   ar
    29    30    31    1
    30    31    32    1
    31    32    33    1
    32    33    34    2
    33    30    25   ar
    34     6     1    1
    35    19    12   ar
    36    33    29    1
    37    10     4    1
    38    22    23    1
@<TRIPOS>MOLECULE
*****
 34 38 0 0 0
SMALL
GASTEIGER

@<TRIPOS>ATOM
      1 N         139.8880  137.8221  164.1101 N.3     1  UNL1       -0.2703
      2 C         139.4348  137.8879  162.6817 C.3     1  UNL1        0.0727
      3 C         140.4364  138.1046  161.5864 C.3     1  UNL1        0.0260
      4 C         141.8911  138.2555  161.9194 C.3     1  UNL1        0.0737
      5 C         142.3443  138.1897  163.3477 C.3     1  UNL1        0.0260
      6 C         141.3428  137.9730  164.4431 C.3     1  UNL1        0.0727
      7 C         143.3710  138.4226  162.0983 C.3     1  UNL1        0.0306
      8 C         143.9833  138.6135  160.7422 C.3     1  UNL1        0.0987
      9 N         142.8816  138.5644  159.7252 N.am    1  UNL1       -0.2573
     10 C         141.5887  138.3431  160.4527 C.2     1  UNL1        0.2286
     11 O         140.2316  138.2294  159.8241 O.2     1  UNL1       -0.2746
     12 C         143.0444  138.7108  158.2414 C.ar    1  UNL1        0.0713
     13 C         143.4667  140.0273  157.6595 C.ar    1  UNL1        0.0213
     14 C         143.6295  140.1737  156.1755 C.ar    1  UNL1        0.0621
     15 C         143.3700  139.0037  155.2735 C.ar    1  UNL1        0.2611
     16 O         143.5328  139.1501  153.7895 O.2     1  UNL1       -0.2670
     17 N         142.9478  137.6871  155.8554 N.ar    1  UNL1       -0.2910
     18 C         142.6884  136.5171  154.9533 C.3     1  UNL1        0.1336
     19 C         142.7850  137.5408  157.3393 C.ar    1  UNL1        0.0933
     20 C         138.8864  137.6054  165.2055 C.3     1  UNL1        0.1063
     21 C         138.1701  138.7768  165.8094 C.3     1  UNL1        0.1483
     22 O         137.3232  138.5886  167.0330 O.3     1  UNL1       -0.3786
     23 H         136.9345  139.4390  167.2912 H       1  UNL1        0.2108
     24 C         140.0901  140.7728  166.9626 C.3     1  UNL1        0.0306
     25 C         139.2607  141.1345  165.7662 C.ar    1  UNL1       -0.0238
     26 C         138.3008  140.1366  165.1896 C.ar    1  UNL1        0.0015
     27 C         137.4714  140.4983  163.9932 C.ar    1  UNL1       -0.0020
     28 C         137.6020  141.8579  163.3734 C.ar    1  UNL1        0.0060
     29 C         138.5620  142.8559  163.9500 C.ar    1  UNL1        0.0748
     30 C         139.3913  142.4942  165.1464 C.ar    1  UNL1        0.0233
     31 C         140.2464  143.6770  165.4924 C.3     1  UNL1        0.2352
     32 O         139.9456  144.7698  164.5098 O.3     1  UNL1       -0.4404
     33 C         138.9045  144.2623  163.5566 C.2     1  UNL1        0.3413
     34 O         138.3103  145.0269  162.4111 O.2     1  UNL1       -0.2449
@<TRIPOS>BOND
     1    24    25    1
     2    25    26   ar
     3    26    21    1
     4    21    22    1
     5    21    20    1
     6    20     1    1
     7     1     2    1
     8     2     3    1
     9     3     4    1
    10     4     5    1
    11     5     6    1
    12     4     7    1
    13     7     8    1
    14     8     9    1
    15     9    12    1
    16    12    13   ar
    17    13    14   ar
    18    14    15   ar
    19    15    16    2
    20    15    17   ar
    21    17    18    1
    22    17    19   ar
    23     9    10   am
    24    10    11    2
    25    26    27   ar
    26    27    28   ar
    27    28    29   ar
    28    29    30   ar
    29    30    31    1
    30    31    32    1
    31    32    33    1
    32    33    34    2
    33    30    25   ar
    34     6     1    1
    35    19    12   ar
    36    33    29    1
    37    10     4    1
    38    22    23    1
@<TRIPOS>MOLECULE
*****
 34 38 0 0 0
SMALL
GASTEIGER

@<TRIPOS>ATOM
      1 N         138.4472  139.3702  164.8301 N.3     1  UNL1       -0.2703
      2 C         137.9984  140.6236  164.1391 C.3     1  UNL1        0.0727
      3 C         138.0639  140.7201  162.6437 C.3     1  UNL1        0.0260
      4 C         138.5783  139.5632  161.8393 C.3     1  UNL1        0.0737
      5 C         139.0271  138.3098  162.5303 C.3     1  UNL1        0.0260
      6 C         138.9616  138.2133  164.0257 C.3     1  UNL1        0.0727
      7 C         139.0667  138.4942  160.9073 C.3     1  UNL1        0.0306
      8 C         138.9571  139.0160  159.5051 C.3     1  UNL1        0.0987
      9 N         138.4010  140.4076  159.5707 N.am    1  UNL1       -0.2573
     10 C         138.1669  140.7458  161.0131 C.2     1  UNL1        0.2286
     11 O         137.6178  142.0394  161.5376 O.2     1  UNL1       -0.2746
     12 C         138.1272  141.3036  158.3994 C.ar    1  UNL1        0.0713
     13 C         138.9496  142.5410  158.1932 C.ar    1  UNL1        0.0213
     14 C         138.6757  143.4371  157.0218 C.ar    1  UNL1        0.0621
     15 C         137.5794  143.0958  156.0566 C.ar    1  UNL1        0.2611
     16 O         137.3056  143.9918  154.8852 O.2     1  UNL1       -0.2670
     17 N         136.7570  141.8583  156.2627 N.ar    1  UNL1       -0.2910
     18 C         135.6607  141.5170  155.2975 C.3     1  UNL1        0.1336
     19 C         137.0309  140.9623  157.4341 C.ar    1  UNL1        0.0933
     20 C         138.3817  139.2736  166.3256 C.3     1  UNL1        0.1063
     21 C         139.5521  139.7078  167.1572 C.3     1  UNL1        0.1483
     22 O         139.4393  139.7387  168.6526 O.3     1  UNL1       -0.3786
     23 H         140.2787  140.0401  169.0340 H       1  UNL1        0.2108
     24 C         140.0482  142.5871  166.4763 C.3     1  UNL1        0.0306
     25 C         141.0834  141.5508  166.1529 C.ar    1  UNL1       -0.0238
     26 C         140.8353  140.1112  166.4933 C.ar    1  UNL1        0.0015
     27 C         141.8705  139.0749  166.1700 C.ar    1  UNL1       -0.0020
     28 C         143.1537  139.4782  165.5062 C.ar    1  UNL1        0.0060
     29 C         143.4017  140.9178  165.1657 C.ar    1  UNL1        0.0748
     30 C         142.3666  141.9541  165.4891 C.ar    1  UNL1        0.0233
     31 C         142.8875  143.2863  165.0376 C.3     1  UNL1        0.2352
     32 O         144.2446  143.0734  164.4351 O.3     1  UNL1       -0.4404
     33 C         144.5624  141.6096  164.5144 C.2     1  UNL1        0.3413
     34 O         145.8201  140.9528  164.0277 O.2     1  UNL1       -0.2449
@<TRIPOS>BOND
     1    24    25    1
     2    25    26   ar
     3    26    21    1
     4    21    22    1
     5    21    20    1
     6    20     1    1
     7     1     2    1
     8     2     3    1
     9     3     4    1
    10     4     5    1
    11     5     6    1
    12     4     7    1
    13     7     8    1
    14     8     9    1
    15     9    12    1
    16    12    13   ar
    17    13    14   ar
    18    14    15   ar
    19    15    16    2
    20    15    17   ar
    21    17    18    1
    22    17    19   ar
    23     9    10   am
    24    10    11    2
    25    26    27   ar
    26    27    28   ar
    27    28    29   ar
    28    29    30   ar
    29    30    31    1
    30    31    32    1
    31    32    33    1
    32    33    34    2
    33    30    25   ar
    34     6     1    1
    35    19    12   ar
    36    33    29    1
    37    10     4    1
    38    22    23    1
@<TRIPOS>MOLECULE
*****
 34 38 0 0 0
SMALL
GASTEIGER

@<TRIPOS>ATOM
      1 N         144.9536  141.5149  163.2070 N.3     1  UNL1       -0.2703
      2 C         144.6676  141.8852  161.7818 C.3     1  UNL1        0.0727
      3 C         144.0611  140.8764  160.8521 C.3     1  UNL1        0.0260
      4 C         143.7405  139.4974  161.3476 C.3     1  UNL1        0.0737
      5 C         144.0265  139.1271  162.7727 C.3     1  UNL1        0.0260
      6 C         144.6330  140.1359  163.7024 C.3     1  UNL1        0.0727
      7 C         143.3678  138.0873  161.6982 C.3     1  UNL1        0.0306
      8 C         142.7971  137.4399  160.4712 C.3     1  UNL1        0.0987
      9 N         142.8171  138.4499  159.3623 N.am    1  UNL1       -0.2573
     10 C         143.4001  139.7214  159.9039 C.2     1  UNL1        0.2286
     11 O         143.6066  140.9937  159.1367 O.2     1  UNL1       -0.2746
     12 C         142.3381  138.2275  157.9585 C.ar    1  UNL1        0.0713
     13 C         141.2700  139.1087  157.3819 C.ar    1  UNL1        0.0213
     14 C         140.7910  138.8862  155.9780 C.ar    1  UNL1        0.0621
     15 C         141.3802  137.7825  155.1505 C.ar    1  UNL1        0.2611
     16 O         140.9012  137.5600  153.7466 O.2     1  UNL1       -0.2670
     17 N         142.4484  136.9012  155.7271 N.ar    1  UNL1       -0.2910
     18 C         143.0376  135.7974  154.8997 C.3     1  UNL1        0.1336
     19 C         142.9273  137.1237  157.1311 C.ar    1  UNL1        0.0933
     20 C         145.5602  142.5238  164.1368 C.3     1  UNL1        0.1063
     21 C         144.6756  143.4296  164.9411 C.3     1  UNL1        0.1483
     22 O         145.2038  144.0849  166.1826 O.3     1  UNL1       -0.3786
     23 H         144.5089  144.6332  166.5795 H       1  UNL1        0.2108
     24 C         142.4242  141.8859  166.1854 C.3     1  UNL1        0.0306
     25 C         142.1371  142.9082  165.1260 C.ar    1  UNL1       -0.0238
     26 C         143.2627  143.6800  164.5038 C.ar    1  UNL1        0.0015
     27 C         142.9756  144.7024  163.4444 C.ar    1  UNL1       -0.0020
     28 C         141.5628  144.9529  163.0071 C.ar    1  UNL1        0.0060
     29 C         140.4372  144.1810  163.6293 C.ar    1  UNL1        0.0748
     30 C         140.7243  143.1587  164.6887 C.ar    1  UNL1        0.0233
     31 C         139.4191  142.5565  165.1176 C.3     1  UNL1        0.2352
     32 O         138.3254  143.2067  164.3233 O.3     1  UNL1       -0.4404
     33 C         138.9545  144.2107  163.4034 C.2     1  UNL1        0.3413
     34 O         138.2286  145.0900  162.4288 O.2     1  UNL1       -0.2449
@<TRIPOS>BOND
     1    24    25    1
     2    25    26   ar
     3    26    21    1
     4    21    22    1
     5    21    20    1
     6    20     1    1
     7     1     2    1
     8     2     3    1
     9     3     4    1
    10     4     5    1
    11     5     6    1
    12     4     7    1
    13     7     8    1
    14     8     9    1
    15     9    12    1
    16    12    13   ar
    17    13    14   ar
    18    14    15   ar
    19    15    16    2
    20    15    17   ar
    21    17    18    1
    22    17    19   ar
    23     9    10   am
    24    10    11    2
    25    26    27   ar
    26    27    28   ar
    27    28    29   ar
    28    29    30   ar
    29    30    31    1
    30    31    32    1
    31    32    33    1
    32    33    34    2
    33    30    25   ar
    34     6     1    1
    35    19    12   ar
    36    33    29    1
    37    10     4    1
    38    22    23    1
@<TRIPOS>MOLECULE
*****
 34 38 0 0 0
SMALL
GASTEIGER

@<TRIPOS>ATOM
      1 N         143.4940  138.7830  162.0284 N.3     1  UNL1       -0.2703
      2 C         142.6675  138.4086  163.2229 C.3     1  UNL1        0.0727
      3 C         142.6332  139.3080  164.4228 C.3     1  UNL1        0.0260
      4 C         143.4255  140.5817  164.4283 C.3     1  UNL1        0.0737
      5 C         144.2520  140.9560  163.2339 C.3     1  UNL1        0.0260
      6 C         144.2863  140.0566  162.0339 C.3     1  UNL1        0.0727
      7 C         144.1616  141.8801  164.5783 C.3     1  UNL1        0.0306
      8 C         143.8402  142.4414  165.9318 C.3     1  UNL1        0.0987
      9 N         142.9055  141.4899  166.6182 N.am    1  UNL1       -0.2573
     10 C         142.6493  140.3406  165.6891 C.2     1  UNL1        0.2286
     11 O         141.7710  139.1578  165.9711 O.2     1  UNL1       -0.2746
     12 C         142.3285  141.6582  167.9924 C.ar    1  UNL1        0.0713
     13 C         143.1039  142.3909  169.0469 C.ar    1  UNL1        0.0213
     14 C         142.5269  142.5592  170.4212 C.ar    1  UNL1        0.0621
     15 C         141.1744  141.9949  170.7411 C.ar    1  UNL1        0.2611
     16 O         140.5973  142.1632  172.1154 O.2     1  UNL1       -0.2670
     17 N         140.3989  141.2622  169.6866 N.ar    1  UNL1       -0.2910
     18 C         139.0464  140.6979  170.0064 C.3     1  UNL1        0.1336
     19 C         140.9760  141.0939  168.3123 C.ar    1  UNL1        0.0933
     20 C         143.5282  137.8836  160.8284 C.3     1  UNL1        0.1063
     21 C         142.7663  138.2550  159.5908 C.3     1  UNL1        0.1483
     22 O         142.7579  137.3305  158.4096 O.3     1  UNL1       -0.3786
     23 H         142.2227  137.7181  157.6995 H       1  UNL1        0.2108
     24 C         139.9569  138.4032  160.6327 C.3     1  UNL1        0.0306
     25 C         140.6082  139.6249  160.0554 C.ar    1  UNL1       -0.0238
     26 C         142.0129  139.5508  159.5345 C.ar    1  UNL1        0.0015
     27 C         142.6641  140.7725  158.9572 C.ar    1  UNL1       -0.0020
     28 C         141.9107  142.0684  158.9008 C.ar    1  UNL1        0.0060
     29 C         140.5061  142.1424  159.4217 C.ar    1  UNL1        0.0748
     30 C         139.8548  140.9207  159.9990 C.ar    1  UNL1        0.0233
     31 C         138.4685  141.2954  160.4325 C.3     1  UNL1        0.2352
     32 O         138.2630  142.7487  160.1231 O.3     1  UNL1       -0.4404
     33 C         139.5223  143.2722  159.4985 C.2     1  UNL1        0.3413
     34 O         139.7567  144.6785  159.0323 O.2     1  UNL1       -0.2449
@<TRIPOS>BOND
     1    24    25    1
     2    25    26   ar
     3    26    21    1
     4    21    22    1
     5    21    20    1
     6    20     1    1
     7     1     2    1
     8     2     3    1
     9     3     4    1
    10     4     5    1
    11     5     6    1
    12     4     7    1
    13     7     8    1
    14     8     9    1
    15     9    12    1
    16    12    13   ar
    17    13    14   ar
    18    14    15   ar
    19    15    16    2
    20    15    17   ar
    21    17    18    1
    22    17    19   ar
    23     9    10   am
    24    10    11    2
    25    26    27   ar
    26    27    28   ar
    27    28    29   ar
    28    29    30   ar
    29    30    31    1
    30    31    32    1
    31    32    33    1
    32    33    34    2
    33    30    25   ar
    34     6     1    1
    35    19    12   ar
    36    33    29    1
    37    10     4    1
    38    22    23    1
@<TRIPOS>MOLECULE
*****
 34 38 0 0 0
SMALL
GASTEIGER

@<TRIPOS>ATOM
      1 N         142.1336  137.9975  161.9164 N.3     1  UNL1       -0.2703
      2 C         142.8336  138.7167  163.0312 C.3     1  UNL1        0.0727
      3 C         142.0823  139.0805  164.2774 C.3     1  UNL1        0.0260
      4 C         140.6310  138.7251  164.4089 C.3     1  UNL1        0.0737
      5 C         139.9310  138.0058  163.2942 C.3     1  UNL1        0.0260
      6 C         140.6823  137.6420  162.0480 C.3     1  UNL1        0.0727
      7 C         139.1845  138.4369  164.6822 C.3     1  UNL1        0.0306
      8 C         138.8538  138.9747  166.0430 C.3     1  UNL1        0.0987
      9 N         140.0959  139.5952  166.6106 N.am    1  UNL1       -0.2573
     10 C         141.1943  139.4409  165.6008 C.2     1  UNL1        0.2286
     11 O         142.6077  139.9185  165.7555 O.2     1  UNL1       -0.2746
     12 C         140.2182  140.2542  167.9525 C.ar    1  UNL1        0.0713
     13 C         139.1514  140.0519  168.9874 C.ar    1  UNL1        0.0213
     14 C         139.2737  140.7110  170.3293 C.ar    1  UNL1        0.0621
     15 C         140.4628  141.5722  170.6363 C.ar    1  UNL1        0.2611
     16 O         140.5851  142.2313  171.9782 O.2     1  UNL1       -0.2670
     17 N         141.5296  141.7745  169.6014 N.ar    1  UNL1       -0.2910
     18 C         142.7187  142.6358  169.9084 C.3     1  UNL1        0.1336
     19 C         141.4073  141.1155  168.2595 C.ar    1  UNL1        0.0933
     20 C         142.8849  137.6336  160.6701 C.3     1  UNL1        0.1063
     21 C         142.7895  138.5076  159.4548 C.3     1  UNL1        0.1483
     22 O         143.1893  137.9714  158.1122 O.3     1  UNL1       -0.3786
     23 H         143.0675  138.6598  157.4397 H       1  UNL1        0.2108
     24 C         139.9241  139.1521  158.8431 C.3     1  UNL1        0.0306
     25 C         140.8616  140.2400  159.2762 C.ar    1  UNL1       -0.0238
     26 C         142.2942  139.9178  159.5821 C.ar    1  UNL1        0.0015
     27 C         143.2317  141.0057  160.0152 C.ar    1  UNL1       -0.0020
     28 C         142.7366  142.4158  160.1424 C.ar    1  UNL1        0.0060
     29 C         141.3039  142.7381  159.8366 C.ar    1  UNL1        0.0748
     30 C         140.3664  141.6502  159.4035 C.ar    1  UNL1        0.0233
     31 C         139.0181  142.2653  159.1716 C.3     1  UNL1        0.2352
     32 O         139.1223  143.7334  159.4614 O.3     1  UNL1       -0.4404
     33 C         140.5350  144.0255  159.8724 C.2     1  UNL1        0.3413
     34 O         141.0827  145.3693  160.2524 O.2     1  UNL1       -0.2449
@<TRIPOS>BOND
     1    24    25    1
     2    25    26   ar
     3    26    21    1
     4    21    22    1
     5    21    20    1
     6    20     1    1
     7     1     2    1
     8     2     3    1
     9     3     4    1
    10     4     5    1
    11     5     6    1
    12     4     7    1
    13     7     8    1
    14     8     9    1
    15     9    12    1
    16    12    13   ar
    17    13    14   ar
    18    14    15   ar
    19    15    16    2
    20    15    17   ar
    21    17    18    1
    22    17    19   ar
    23     9    10   am
    24    10    11    2
    25    26    27   ar
    26    27    28   ar
    27    28    29   ar
    28    29    30   ar
    29    30    31    1
    30    31    32    1
    31    32    33    1
    32    33    34    2
    33    30    25   ar
    34     6     1    1
    35    19    12   ar
    36    33    29    1
    37    10     4    1
    38    22    23    1
@<TRIPOS>MOLECULE
*****
 34 38 0 0 0
SMALL
GASTEIGER

@<TRIPOS>ATOM
      1 N         143.3377  138.8810  165.1519 N.3     1  UNL1       -0.2703
      2 C         142.2465  138.1630  164.4145 C.3     1  UNL1        0.0727
      3 C         142.2225  138.1729  162.9148 C.3     1  UNL1        0.0260
      4 C         143.2897  138.9009  162.1524 C.3     1  UNL1        0.0737
      5 C         144.3809  139.6189  162.8898 C.3     1  UNL1        0.0260
      6 C         144.4048  139.6089  164.3896 C.3     1  UNL1        0.0727
      7 C         144.2838  139.5821  161.2592 C.3     1  UNL1        0.0306
      8 C         143.8759  139.3336  159.8372 C.3     1  UNL1        0.0987
      9 N         142.6297  138.4987  159.8517 N.am    1  UNL1       -0.2573
     10 C         142.2674  138.2313  161.2825 C.2     1  UNL1        0.2286
     11 O         141.0897  137.4343  161.7597 O.2     1  UNL1       -0.2746
     12 C         141.8778  138.0161  158.6469 C.ar    1  UNL1        0.0713
     13 C         140.4549  138.4391  158.4316 C.ar    1  UNL1        0.0213
     14 C         139.7030  137.9564  157.2267 C.ar    1  UNL1        0.0621
     15 C         140.3741  137.0507  156.2371 C.ar    1  UNL1        0.2611
     16 O         139.6222  136.5681  155.0322 O.2     1  UNL1       -0.2670
     17 N         141.7971  136.6277  156.4523 N.ar    1  UNL1       -0.2910
     18 C         142.4681  135.7220  155.4626 C.3     1  UNL1        0.1336
     19 C         142.5489  137.1104  157.6572 C.ar    1  UNL1        0.0933
     20 C         143.3617  138.8711  166.6518 C.3     1  UNL1        0.1063
     21 C         142.6510  139.9454  167.4204 C.3     1  UNL1        0.1483
     22 O         142.9564  140.1546  168.8740 O.3     1  UNL1       -0.3786
     23 H         142.4144  140.8824  169.2167 H       1  UNL1        0.2108
     24 C         143.5070  142.4873  166.0765 C.3     1  UNL1        0.0306
     25 C         142.0630  142.0815  166.0634 C.ar    1  UNL1       -0.0238
     26 C         141.6350  140.8106  166.7353 C.ar    1  UNL1        0.0015
     27 C         140.1910  140.4048  166.7223 C.ar    1  UNL1       -0.0020
     28 C         139.1750  141.2699  166.0373 C.ar    1  UNL1        0.0060
     29 C         139.6030  142.5408  165.3654 C.ar    1  UNL1        0.0748
     30 C         141.0470  142.9466  165.3785 C.ar    1  UNL1        0.0233
     31 C         141.1703  144.2450  164.6374 C.3     1  UNL1        0.2352
     32 O         139.8025  144.6416  164.1663 O.3     1  UNL1       -0.4404
     33 C         138.8339  143.5884  164.6163 C.2     1  UNL1        0.3413
     34 O         137.3556  143.5835  164.3618 O.2     1  UNL1       -0.2449
@<TRIPOS>BOND
     1    24    25    1
     2    25    26   ar
     3    26    21    1
     4    21    22    1
     5    21    20    1
     6    20     1    1
     7     1     2    1
     8     2     3    1
     9     3     4    1
    10     4     5    1
    11     5     6    1
    12     4     7    1
    13     7     8    1
    14     8     9    1
    15     9    12    1
    16    12    13   ar
    17    13    14   ar
    18    14    15   ar
    19    15    16    2
    20    15    17   ar
    21    17    18    1
    22    17    19   ar
    23     9    10   am
    24    10    11    2
    25    26    27   ar
    26    27    28   ar
    27    28    29   ar
    28    29    30   ar
    29    30    31    1
    30    31    32    1
    31    32    33    1
    32    33    34    2
    33    30    25   ar
    34     6     1    1
    35    19    12   ar
    36    33    29    1
    37    10     4    1
    38    22    23    1
@<TRIPOS>MOLECULE
*****
 34 38 0 0 0
SMALL
GASTEIGER

@<TRIPOS>ATOM
      1 N         142.3011  137.9010  161.8044 N.3     1  UNL1       -0.2703
      2 C         143.1463  138.4872  162.8961 C.3     1  UNL1        0.0727
      3 C         142.5075  138.9538  164.1705 C.3     1  UNL1        0.0260
      4 C         141.0235  138.8341  164.3532 C.3     1  UNL1        0.0737
      5 C         140.1783  138.2479  163.2615 C.3     1  UNL1        0.0260
      6 C         140.8171  137.7814  161.9871 C.3     1  UNL1        0.0727
      7 C         139.5601  138.7787  164.6777 C.3     1  UNL1        0.0306
      8 C         139.3681  139.3484  166.0521 C.3     1  UNL1        0.0987
      9 N         140.7130  139.7559  166.5769 N.am    1  UNL1       -0.2573
     10 C         141.7360  139.4381  165.5270 C.2     1  UNL1        0.2286
     11 O         143.2124  139.6815  165.6323 O.2     1  UNL1       -0.2746
     12 C         140.9866  140.3729  167.9164 C.ar    1  UNL1        0.0713
     13 C         141.6807  139.5765  168.9813 C.ar    1  UNL1        0.0213
     14 C         141.9543  140.1935  170.3209 C.ar    1  UNL1        0.0621
     15 C         141.5340  141.6069  170.5955 C.ar    1  UNL1        0.2611
     16 O         141.8076  142.2239  171.9351 O.2     1  UNL1       -0.2670
     17 N         140.8399  142.4034  169.5306 N.ar    1  UNL1       -0.2910
     18 C         140.4195  143.8169  169.8053 C.3     1  UNL1        0.1336
     19 C         140.5663  141.7863  168.1911 C.ar    1  UNL1        0.0933
     20 C         142.9399  137.4344  160.5298 C.3     1  UNL1        0.1063
     21 C         142.9222  138.3152  159.3158 C.3     1  UNL1        0.1483
     22 O         144.0191  139.3150  159.0985 O.3     1  UNL1       -0.3786
     23 H         143.8570  139.7986  158.2735 H       1  UNL1        0.2108
     24 C         143.1663  136.4079  157.0131 C.3     1  UNL1        0.0306
     25 C         141.9297  137.2426  157.1677 C.ar    1  UNL1       -0.0238
     26 C         141.8076  138.1962  158.3190 C.ar    1  UNL1        0.0015
     27 C         140.5709  139.0309  158.4737 C.ar    1  UNL1       -0.0020
     28 C         139.4563  138.9120  157.4769 C.ar    1  UNL1        0.0060
     29 C         139.5784  137.9584  156.3256 C.ar    1  UNL1        0.0748
     30 C         140.8151  137.1237  156.1710 C.ar    1  UNL1        0.0233
     31 C         140.6522  136.2768  154.9437 C.3     1  UNL1        0.2352
     32 O         139.3149  136.5881  154.3398 O.3     1  UNL1       -0.4404
     33 C         138.6512  137.6274  155.1939 C.2     1  UNL1        0.3413
     34 O         137.2980  138.2299  154.9577 O.2     1  UNL1       -0.2449
@<TRIPOS>BOND
     1    24    25    1
     2    25    26   ar
     3    26    21    1
     4    21    22    1
     5    21    20    1
     6    20     1    1
     7     1     2    1
     8     2     3    1
     9     3     4    1
    10     4     5    1
    11     5     6    1
    12     4     7    1
    13     7     8    1
    14     8     9    1
    15     9    12    1
    16    12    13   ar
    17    13    14   ar
    18    14    15   ar
    19    15    16    2
    20    15    17   ar
    21    17    18    1
    22    17    19   ar
    23     9    10   am
    24    10    11    2
    25    26    27   ar
    26    27    28   ar
    27    28    29   ar
    28    29    30   ar
    29    30    31    1
    30    31    32    1
    31    32    33    1
    32    33    34    2
    33    30    25   ar
    34     6     1    1
    35    19    12   ar
    36    33    29    1
    37    10     4    1
    38    22    23    1
@<TRIPOS>MOLECULE
*****
 34 38 0 0 0
SMALL
GASTEIGER

@<TRIPOS>ATOM
      1 N         144.4955  141.7953  161.8162 N.3     1  UNL1       -0.2703
      2 C         144.0154  142.7309  162.8857 C.3     1  UNL1        0.0727
      3 C         143.5906  142.1909  164.2191 C.3     1  UNL1        0.0260
      4 C         143.6459  140.7153  164.4829 C.3     1  UNL1        0.0737
      5 C         144.1260  139.7797  163.4133 C.3     1  UNL1        0.0260
      6 C         144.5508  140.3197  162.0800 C.3     1  UNL1        0.0727
      7 C         143.6463  139.2717  164.8903 C.3     1  UNL1        0.0306
      8 C         143.1468  139.1883  166.3023 C.3     1  UNL1        0.0987
      9 N         142.8376  140.5805  166.7675 N.am    1  UNL1       -0.2573
     10 C         143.1461  141.5242  165.6431 C.2     1  UNL1        0.2286
     11 O         142.9834  143.0150  165.6735 O.2     1  UNL1       -0.2746
     12 C         142.3123  140.9620  168.1197 C.ar    1  UNL1        0.0713
     13 C         142.4819  140.0279  169.2810 C.ar    1  UNL1        0.0213
     14 C         141.9565  140.4094  170.6333 C.ar    1  UNL1        0.0621
     15 C         141.2615  141.7249  170.8241 C.ar    1  UNL1        0.2611
     16 O         140.7361  142.1063  172.1763 O.2     1  UNL1       -0.2670
     17 N         141.0918  142.6590  169.6627 N.ar    1  UNL1       -0.2910
     18 C         140.3968  143.9744  169.8535 C.3     1  UNL1        0.1336
     19 C         141.6172  142.2774  168.3105 C.ar    1  UNL1        0.0933
     20 C         144.9203  142.3352  160.4827 C.3     1  UNL1        0.1063
     21 C         143.9019  142.5550  159.4036 C.3     1  UNL1        0.1483
     22 O         144.2869  143.2729  158.1440 O.3     1  UNL1       -0.3786
     23 H         143.5174  143.3297  157.5562 H       1  UNL1        0.2108
     24 C         141.8296  144.3289  160.6523 C.3     1  UNL1        0.0306
     25 C         141.4624  142.9439  160.2083 C.ar    1  UNL1       -0.0238
     26 C         142.4985  142.0570  159.5840 C.ar    1  UNL1        0.0015
     27 C         142.1313  140.6721  159.1401 C.ar    1  UNL1       -0.0020
     28 C         140.7279  140.1740  159.3205 C.ar    1  UNL1        0.0060
     29 C         139.6918  141.0609  159.9448 C.ar    1  UNL1        0.0748
     30 C         140.0591  142.4459  160.3887 C.ar    1  UNL1        0.0233
     31 C         138.8330  143.0874  160.9678 C.3     1  UNL1        0.2352
     32 O         137.7081  142.0989  160.8818 O.3     1  UNL1       -0.4404
     33 C         138.2389  140.8465  160.2495 C.2     1  UNL1        0.3413
     34 O         137.4544  139.5987  159.9709 O.2     1  UNL1       -0.2449
@<TRIPOS>BOND
     1    24    25    1
     2    25    26   ar
     3    26    21    1
     4    21    22    1
     5    21    20    1
     6    20     1    1
     7     1     2    1
     8     2     3    1
     9     3     4    1
    10     4     5    1
    11     5     6    1
    12     4     7    1
    13     7     8    1
    14     8     9    1
    15     9    12    1
    16    12    13   ar
    17    13    14   ar
    18    14    15   ar
    19    15    16    2
    20    15    17   ar
    21    17    18    1
    22    17    19   ar
    23     9    10   am
    24    10    11    2
    25    26    27   ar
    26    27    28   ar
    27    28    29   ar
    28    29    30   ar
    29    30    31    1
    30    31    32    1
    31    32    33    1
    32    33    34    2
    33    30    25   ar
    34     6     1    1
    35    19    12   ar
    36    33    29    1
    37    10     4    1
    38    22    23    1
