@<TRIPOS>MOLECULE
*****
 31 34 0 0 0
SMALL
GASTEIGER

@<TRIPOS>ATOM
      1 C         142.5413  142.3578  164.2042 C.ar    1  UNL1        0.0858
      2 C         143.2933  141.6046  163.1473 C.ar    1  UNL1        0.0399
      3 C         143.3443  142.1314  161.7437 C.ar    1  UNL1        0.1032
      4 N         144.0963  141.3782  160.6868 N.ar    1  UNL1       -0.2405
      5 C         144.1472  141.9050  159.2833 C.ar    1  UNL1        0.1195
      6 C         143.4462  143.1850  158.9367 C.ar    1  UNL1        0.1196
      7 N         142.6943  143.9382  159.9936 N.ar    1  UNL1       -0.2379
      8 C         142.6433  143.4114  161.3971 C.ar    1  UNL1        0.1302
      9 C         141.8913  144.1647  162.4542 C.ar    1  UNL1        0.1477
     10 N         141.8403  143.6379  163.8576 N.ar    1  UNL1       -0.2292
     11 C         142.3883  140.7775  168.4148 C.ar    1  UNL1        0.1318
     12 C         143.1523  142.0324  168.1120 C.ar    1  UNL1        0.0344
     13 C         143.2033  142.5591  166.7085 C.ar    1  UNL1        0.0059
     14 C         142.4904  141.8311  165.6078 C.ar    1  UNL1        0.0370
     15 C         141.7264  140.5762  165.9106 C.ar    1  UNL1        0.1018
     16 N         141.6754  140.0494  167.3141 N.ar    1  UNL1       -0.2291
     17 C         142.5846  138.7950  170.0826 C.3     1  UNL1        0.1136
     18 N         142.3373  140.2507  169.8184 N.pl3   1  UNL1       -0.2897
     19 C         142.0391  141.1796  170.9577 C.3     1  UNL1        0.1136
     20 N         141.1903  145.4447  162.1076 N.pl3   1  UNL1       -0.3167
     21 H         141.7081  146.2185  161.7878 H       1  UNL1        0.1482
     22 C         139.7004  145.5457  162.2483 C.3     1  UNL1        0.0950
     23 C         138.8914  144.3209  162.5570 C.3     1  UNL1        0.0965
     24 C         138.6177  143.3120  161.4813 C.3     1  UNL1        0.0757
     25 N         137.8087  142.0871  161.7901 N.3     1  UNL1       -0.2971
     26 C         137.2735  141.8712  163.1746 C.3     1  UNL1        0.0742
     27 C         137.5472  142.8801  164.2504 C.3     1  UNL1        0.0837
     28 C         138.3561  144.1049  163.9416 C.3     1  UNL1        0.2680
     29 F         139.0646  145.4124  164.1373 F       1  UNL1       -0.2042
     30 F         138.0669  144.3430  165.3941 F       1  UNL1       -0.2042
     31 H         138.3976  141.2830  161.5733 H       1  UNL1        0.1233
@<TRIPOS>BOND
     1    17    18    1
     2    18    19    1
     3    18    11    1
     4    11    12   ar
     5    12    13   ar
     6    13    14   ar
     7    14     1    1
     8     1     2   ar
     9     2     3   ar
    10     3     4   ar
    11     4     5   ar
    12     5     6   ar
    13     6     7   ar
    14     7     8   ar
    15     8     9   ar
    16     9    20    1
    17    20    22    1
    18    23    22    1
    19    23    24    1
    20    24    25    1
    21    25    26    1
    22    26    27    1
    23    27    28    1
    24    28    29    1
    25    28    30    1
    26     9    10   ar
    27    14    15   ar
    28    15    16   ar
    29    16    11   ar
    30    10     1   ar
    31     8     3   ar
    32    28    23    1
    33    20    21    1
    34    25    31    1
@<TRIPOS>MOLECULE
*****
 31 34 0 0 0
SMALL
GASTEIGER

@<TRIPOS>ATOM
      1 C         139.3470  141.9479  164.4149 C.ar    1  UNL1        0.0858
      2 C         138.9565  140.7866  163.5497 C.ar    1  UNL1        0.0399
      3 C         138.6391  141.0047  162.0999 C.ar    1  UNL1        0.1032
      4 N         138.2486  139.8433  161.2347 N.ar    1  UNL1       -0.2405
      5 C         137.9313  140.0614  159.7850 C.ar    1  UNL1        0.1195
      6 C         138.0044  141.4409  159.2006 C.ar    1  UNL1        0.1196
      7 N         138.3949  142.6023  160.0658 N.ar    1  UNL1       -0.2379
      8 C         138.7123  142.3842  161.5155 C.ar    1  UNL1        0.1302
      9 C         139.1028  143.5456  162.3808 C.ar    1  UNL1        0.1477
     10 N         139.4202  143.3274  163.8305 N.ar    1  UNL1       -0.2292
     11 C         140.2991  141.2935  168.7641 C.ar    1  UNL1        0.1318
     12 C         140.6230  142.6063  168.1147 C.ar    1  UNL1        0.0344
     13 C         140.3057  142.8245  166.6650 C.ar    1  UNL1        0.0059
     14 C         139.6644  141.7298  165.8647 C.ar    1  UNL1        0.0370
     15 C         139.3406  140.4170  166.5141 C.ar    1  UNL1        0.1018
     16 N         139.6579  140.1989  167.9638 N.ar    1  UNL1       -0.2291
     17 C         140.0557  139.8848  170.9335 C.3     1  UNL1        0.1136
     18 N         140.6165  141.0754  170.2139 N.pl3   1  UNL1       -0.2897
     19 C         141.4947  142.0480  170.9439 C.3     1  UNL1        0.1136
     20 N         139.1760  144.9251  161.7963 N.pl3   1  UNL1       -0.3167
     21 H         138.3687  145.3430  161.4185 H       1  UNL1        0.1482
     22 C         140.4792  145.6678  161.7876 C.3     1  UNL1        0.0950
     23 C         141.7739  144.9106  161.7676 C.3     1  UNL1        0.0965
     24 C         142.1337  144.0716  160.5774 C.3     1  UNL1        0.0757
     25 N         143.4284  143.3144  160.5574 N.3     1  UNL1       -0.2971
     26 C         144.3633  143.3962  161.7275 C.3     1  UNL1        0.0742
     27 C         144.0034  144.2352  162.9178 C.3     1  UNL1        0.0837
     28 C         142.7087  144.9924  162.9378 C.3     1  UNL1        0.2680
     29 F         141.6057  145.8857  163.4227 F       1  UNL1       -0.2042
     30 F         143.2605  145.3845  164.2764 F       1  UNL1       -0.2042
     31 H         143.9477  143.6405  159.7423 H       1  UNL1        0.1233
@<TRIPOS>BOND
     1    17    18    1
     2    18    19    1
     3    18    11    1
     4    11    12   ar
     5    12    13   ar
     6    13    14   ar
     7    14     1    1
     8     1     2   ar
     9     2     3   ar
    10     3     4   ar
    11     4     5   ar
    12     5     6   ar
    13     6     7   ar
    14     7     8   ar
    15     8     9   ar
    16     9    20    1
    17    20    22    1
    18    23    22    1
    19    23    24    1
    20    24    25    1
    21    25    26    1
    22    26    27    1
    23    27    28    1
    24    28    29    1
    25    28    30    1
    26     9    10   ar
    27    14    15   ar
    28    15    16   ar
    29    16    11   ar
    30    10     1   ar
    31     8     3   ar
    32    28    23    1
    33    20    21    1
    34    25    31    1
@<TRIPOS>MOLECULE
*****
 31 34 0 0 0
SMALL
GASTEIGER

@<TRIPOS>ATOM
      1 C         140.8050  142.9137  164.0457 C.ar    1  UNL1        0.0858
      2 C         141.4419  143.9308  163.1458 C.ar    1  UNL1        0.0399
      3 C         140.9612  144.0885  161.7336 C.ar    1  UNL1        0.1032
      4 N         141.5980  145.1056  160.8337 N.ar    1  UNL1       -0.2405
      5 C         141.1173  145.2632  159.4216 C.ar    1  UNL1        0.1195
      6 C         139.9997  144.4037  158.9095 C.ar    1  UNL1        0.1196
      7 N         139.3628  143.3866  159.8094 N.ar    1  UNL1       -0.2379
      8 C         139.8436  143.2290  161.2215 C.ar    1  UNL1        0.1302
      9 C         139.2067  142.2118  162.1214 C.ar    1  UNL1        0.1477
     10 N         139.6875  142.0542  163.5335 N.ar    1  UNL1       -0.2292
     11 C         142.2473  142.4406  168.2820 C.ar    1  UNL1        0.1318
     12 C         140.7925  142.6820  168.0075 C.ar    1  UNL1        0.0344
     13 C         140.3117  142.8397  166.5954 C.ar    1  UNL1        0.0059
     14 C         141.2858  142.7560  165.4578 C.ar    1  UNL1        0.0370
     15 C         142.7406  142.5146  165.7323 C.ar    1  UNL1        0.1018
     16 N         143.2213  142.3569  167.1444 N.ar    1  UNL1       -0.2291
     17 C         141.7578  141.9274  170.7814 C.3     1  UNL1        0.1136
     18 N         142.7280  142.2829  169.6941 N.pl3   1  UNL1       -0.2897
     19 C         144.1790  142.4808  170.0189 C.3     1  UNL1        0.1136
     20 N         138.0891  141.3524  161.6093 N.pl3   1  UNL1       -0.3167
     21 H         137.6035  141.6112  160.7929 H       1  UNL1        0.1482
     22 C         137.7114  140.0986  162.3409 C.3     1  UNL1        0.0950
     23 C         138.7666  139.0980  162.7087 C.3     1  UNL1        0.0965
     24 C         139.6700  138.5374  161.6506 C.3     1  UNL1        0.0757
     25 N         140.7252  137.5368  162.0184 N.3     1  UNL1       -0.2971
     26 C         140.8771  137.0969  163.4444 C.3     1  UNL1        0.0742
     27 C         139.9738  137.6575  164.5026 C.3     1  UNL1        0.0837
     28 C         138.9185  138.6581  164.1347 C.3     1  UNL1        0.2680
     29 F         137.7786  139.6221  164.2796 F       1  UNL1       -0.2042
     30 F         138.6745  138.5529  165.6110 F       1  UNL1       -0.2042
     31 H         141.6205  137.9360  161.7365 H       1  UNL1        0.1233
@<TRIPOS>BOND
     1    17    18    1
     2    18    19    1
     3    18    11    1
     4    11    12   ar
     5    12    13   ar
     6    13    14   ar
     7    14     1    1
     8     1     2   ar
     9     2     3   ar
    10     3     4   ar
    11     4     5   ar
    12     5     6   ar
    13     6     7   ar
    14     7     8   ar
    15     8     9   ar
    16     9    20    1
    17    20    22    1
    18    23    22    1
    19    23    24    1
    20    24    25    1
    21    25    26    1
    22    26    27    1
    23    27    28    1
    24    28    29    1
    25    28    30    1
    26     9    10   ar
    27    14    15   ar
    28    15    16   ar
    29    16    11   ar
    30    10     1   ar
    31     8     3   ar
    32    28    23    1
    33    20    21    1
    34    25    31    1
@<TRIPOS>MOLECULE
*****
 31 34 0 0 0
SMALL
GASTEIGER

@<TRIPOS>ATOM
      1 C         141.0529  139.2577  164.1231 C.ar    1  UNL1        0.0858
      2 C         142.1736  138.6433  163.3379 C.ar    1  UNL1        0.0399
      3 C         142.0376  138.4586  161.8555 C.ar    1  UNL1        0.1032
      4 N         143.1583  137.8441  161.0704 N.ar    1  UNL1       -0.2405
      5 C         143.0222  137.6595  159.5880 C.ar    1  UNL1        0.1195
      6 C         141.7656  138.0893  158.8909 C.ar    1  UNL1        0.1196
      7 N         140.6449  138.7037  159.6760 N.ar    1  UNL1       -0.2379
      8 C         140.7809  138.8884  161.1583 C.ar    1  UNL1        0.1302
      9 C         139.6602  139.5029  161.9436 C.ar    1  UNL1        0.1477
     10 N         139.7963  139.6875  163.4259 N.ar    1  UNL1       -0.2292
     11 C         141.4608  139.8118  168.5702 C.ar    1  UNL1        0.1318
     12 C         142.6601  139.4464  167.7468 C.ar    1  UNL1        0.0344
     13 C         142.5242  139.2617  166.2645 C.ar    1  UNL1        0.0059
     14 C         141.1889  139.4424  165.6055 C.ar    1  UNL1        0.0370
     15 C         139.9895  139.8078  166.4289 C.ar    1  UNL1        0.1018
     16 N         140.1255  139.9925  167.9112 N.ar    1  UNL1       -0.2291
     17 C         140.3797  140.2524  170.8913 C.3     1  UNL1        0.1136
     18 N         141.5967  139.9965  170.0526 N.pl3   1  UNL1       -0.2897
     19 C         142.9497  139.9252  170.6963 C.3     1  UNL1        0.1136
     20 N         138.4036  139.9327  161.2464 N.pl3   1  UNL1       -0.3167
     21 H         138.1506  139.5203  160.3890 H       1  UNL1        0.1482
     22 C         137.5322  140.9908  161.8556 C.3     1  UNL1        0.0950
     23 C         138.0686  142.3761  162.0633 C.3     1  UNL1        0.0965
     24 C         138.8501  143.0489  160.9741 C.3     1  UNL1        0.0757
     25 N         139.3865  144.4342  161.1818 N.3     1  UNL1       -0.2971
     26 C         139.1414  145.1468  162.4788 C.3     1  UNL1        0.0742
     27 C         138.3599  144.4739  163.5681 C.3     1  UNL1        0.0837
     28 C         137.8235  143.0886  163.3604 C.3     1  UNL1        0.2680
     29 F         137.1168  141.7947  163.6364 F       1  UNL1       -0.2042
     30 F         137.3330  143.3517  164.7533 F       1  UNL1       -0.2042
     31 H         138.9886  145.0175  160.4457 H       1  UNL1        0.1233
@<TRIPOS>BOND
     1    17    18    1
     2    18    19    1
     3    18    11    1
     4    11    12   ar
     5    12    13   ar
     6    13    14   ar
     7    14     1    1
     8     1     2   ar
     9     2     3   ar
    10     3     4   ar
    11     4     5   ar
    12     5     6   ar
    13     6     7   ar
    14     7     8   ar
    15     8     9   ar
    16     9    20    1
    17    20    22    1
    18    23    22    1
    19    23    24    1
    20    24    25    1
    21    25    26    1
    22    26    27    1
    23    27    28    1
    24    28    29    1
    25    28    30    1
    26     9    10   ar
    27    14    15   ar
    28    15    16   ar
    29    16    11   ar
    30    10     1   ar
    31     8     3   ar
    32    28    23    1
    33    20    21    1
    34    25    31    1
@<TRIPOS>MOLECULE
*****
 31 34 0 0 0
SMALL
GASTEIGER

@<TRIPOS>ATOM
      1 C         140.3469  140.0426  164.5157 C.ar    1  UNL1        0.0858
      2 C         139.2767  140.5728  163.6084 C.ar    1  UNL1        0.0399
      3 C         139.2217  140.1318  162.1756 C.ar    1  UNL1        0.1032
      4 N         138.1514  140.6621  161.2683 N.ar    1  UNL1       -0.2405
      5 C         138.0964  140.2211  159.8357 C.ar    1  UNL1        0.1195
      6 C         139.1117  139.2498  159.3104 C.ar    1  UNL1        0.1196
      7 N         140.1819  138.7195  160.2178 N.ar    1  UNL1       -0.2379
      8 C         140.2369  139.1605  161.6504 C.ar    1  UNL1        0.1302
      9 C         141.3071  138.6302  162.5579 C.ar    1  UNL1        0.1477
     10 N         141.3621  139.0712  163.9905 N.ar    1  UNL1       -0.2292
     11 C         140.5121  141.3656  168.8136 C.ar    1  UNL1        0.1318
     12 C         139.6046  140.2419  168.4092 C.ar    1  UNL1        0.0344
     13 C         139.5495  139.8008  166.9766 C.ar    1  UNL1        0.0059
     14 C         140.4020  140.4836  165.9484 C.ar    1  UNL1        0.0370
     15 C         141.3095  141.6073  166.3529 C.ar    1  UNL1        0.1018
     16 N         141.3645  142.0484  167.7855 N.ar    1  UNL1       -0.2291
     17 C         141.4666  141.0979  171.2152 C.3     1  UNL1        0.1136
     18 N         140.5671  141.8066  170.2463 N.pl3   1  UNL1       -0.2897
     19 C         139.7227  142.9564  170.7101 C.3     1  UNL1        0.1136
     20 N         142.3224  137.6589  162.0326 N.pl3   1  UNL1       -0.3167
     21 H         142.0510  136.7422  161.7976 H       1  UNL1        0.1482
     22 C         143.7510  138.0843  161.8655 C.3     1  UNL1        0.0950
     23 C         144.0842  139.5340  161.6718 C.3     1  UNL1        0.0965
     24 C         143.7392  140.2170  160.3817 C.3     1  UNL1        0.0757
     25 N         144.0723  141.6666  160.1880 N.3     1  UNL1       -0.2971
     26 C         144.7505  142.4333  161.2845 C.3     1  UNL1        0.0742
     27 C         145.0955  141.7503  162.5747 C.3     1  UNL1        0.0837
     28 C         144.7623  140.3006  162.7684 C.3     1  UNL1        0.2680
     29 F         144.6513  138.9550  163.4216 F       1  UNL1       -0.2042
     30 F         145.4020  140.6000  164.0917 F       1  UNL1       -0.2042
     31 H         143.1940  142.1470  159.9926 H       1  UNL1        0.1233
@<TRIPOS>BOND
     1    17    18    1
     2    18    19    1
     3    18    11    1
     4    11    12   ar
     5    12    13   ar
     6    13    14   ar
     7    14     1    1
     8     1     2   ar
     9     2     3   ar
    10     3     4   ar
    11     4     5   ar
    12     5     6   ar
    13     6     7   ar
    14     7     8   ar
    15     8     9   ar
    16     9    20    1
    17    20    22    1
    18    23    22    1
    19    23    24    1
    20    24    25    1
    21    25    26    1
    22    26    27    1
    23    27    28    1
    24    28    29    1
    25    28    30    1
    26     9    10   ar
    27    14    15   ar
    28    15    16   ar
    29    16    11   ar
    30    10     1   ar
    31     8     3   ar
    32    28    23    1
    33    20    21    1
    34    25    31    1
@<TRIPOS>MOLECULE
*****
 31 34 0 0 0
SMALL
GASTEIGER

@<TRIPOS>ATOM
      1 C         140.1475  143.9702  159.9079 C.ar    1  UNL1        0.0858
      2 C         141.6113  143.6828  160.0644 C.ar    1  UNL1        0.0399
      3 C         142.3038  143.9990  161.3569 C.ar    1  UNL1        0.1032
      4 N         143.7676  143.7116  161.5134 N.ar    1  UNL1       -0.2405
      5 C         144.4600  144.0278  162.8059 C.ar    1  UNL1        0.1195
      6 C         143.6886  144.6316  163.9419 C.ar    1  UNL1        0.1196
      7 N         142.2248  144.9190  163.7854 N.ar    1  UNL1       -0.2379
      8 C         141.5324  144.6027  162.4929 C.ar    1  UNL1        0.1302
      9 C         140.0685  144.8902  162.3364 C.ar    1  UNL1        0.1477
     10 N         139.3761  144.5739  161.0439 N.ar    1  UNL1       -0.2292
     11 C         138.0702  143.0215  156.0305 C.ar    1  UNL1        0.1318
     12 C         137.6885  142.2914  157.2840 C.ar    1  UNL1        0.0344
     13 C         138.3809  142.6077  158.5765 C.ar    1  UNL1        0.0059
     14 C         139.4550  143.6539  158.6154 C.ar    1  UNL1        0.0370
     15 C         139.8367  144.3840  157.3619 C.ar    1  UNL1        0.1018
     16 N         139.1443  144.0678  156.0694 N.ar    1  UNL1       -0.2291
     17 C         136.8353  143.8147  153.8866 C.3     1  UNL1        0.1136
     18 N         137.3777  142.7052  154.7380 N.pl3   1  UNL1       -0.2897
     19 C         137.2276  141.2794  154.2969 C.3     1  UNL1        0.1136
     20 N         139.2970  145.4939  163.4723 N.pl3   1  UNL1       -0.3167
     21 H         139.1173  146.4618  163.4859 H       1  UNL1        0.1482
     22 C         138.7994  144.6230  164.5876 C.3     1  UNL1        0.0950
     23 C         138.4681  143.1839  164.3247 C.3     1  UNL1        0.0965
     24 C         137.3524  142.8304  163.3866 C.3     1  UNL1        0.0757
     25 N         137.0210  141.3913  163.1237 N.3     1  UNL1       -0.2971
     26 C         137.8054  140.3056  163.7989 C.3     1  UNL1        0.0742
     27 C         138.9212  140.6591  164.7372 C.3     1  UNL1        0.0837
     28 C         139.2525  142.0982  165.0000 C.3     1  UNL1        0.2680
     29 F         139.9391  143.3059  165.5657 F       1  UNL1       -0.2042
     30 F         140.2754  141.4320  165.8718 F       1  UNL1       -0.2042
     31 H         137.1204  141.2450  162.1191 H       1  UNL1        0.1233
@<TRIPOS>BOND
     1    17    18    1
     2    18    19    1
     3    18    11    1
     4    11    12   ar
     5    12    13   ar
     6    13    14   ar
     7    14     1    1
     8     1     2   ar
     9     2     3   ar
    10     3     4   ar
    11     4     5   ar
    12     5     6   ar
    13     6     7   ar
    14     7     8   ar
    15     8     9   ar
    16     9    20    1
    17    20    22    1
    18    23    22    1
    19    23    24    1
    20    24    25    1
    21    25    26    1
    22    26    27    1
    23    27    28    1
    24    28    29    1
    25    28    30    1
    26     9    10   ar
    27    14    15   ar
    28    15    16   ar
    29    16    11   ar
    30    10     1   ar
    31     8     3   ar
    32    28    23    1
    33    20    21    1
    34    25    31    1
@<TRIPOS>MOLECULE
*****
 31 34 0 0 0
SMALL
GASTEIGER

@<TRIPOS>ATOM
      1 C         142.2950  142.0427  164.7849 C.ar    1  UNL1        0.0858
      2 C         143.2233  142.4832  165.8776 C.ar    1  UNL1        0.0399
      3 C         142.8755  142.2130  167.3116 C.ar    1  UNL1        0.1032
      4 N         143.8038  142.6535  168.4043 N.ar    1  UNL1       -0.2405
      5 C         143.4560  142.3833  169.8381 C.ar    1  UNL1        0.1195
      6 C         142.1799  141.6725  170.1793 C.ar    1  UNL1        0.1196
      7 N         141.2516  141.2320  169.0865 N.ar    1  UNL1       -0.2379
      8 C         141.5994  141.5022  167.6527 C.ar    1  UNL1        0.1302
      9 C         140.6711  141.0617  166.5598 C.ar    1  UNL1        0.1477
     10 N         141.0189  141.3319  165.1260 N.ar    1  UNL1       -0.2292
     11 C         143.3383  142.8535  160.4833 C.ar    1  UNL1        0.1318
     12 C         142.2323  141.8976  160.8194 C.ar    1  UNL1        0.0344
     13 C         141.8845  141.6273  162.2533 C.ar    1  UNL1        0.0059
     14 C         142.6427  142.3130  163.3509 C.ar    1  UNL1        0.0370
     15 C         143.7488  143.2688  163.0148 C.ar    1  UNL1        0.1018
     16 N         144.0965  143.5391  161.5809 N.ar    1  UNL1       -0.2291
     17 C         142.7806  143.9702  158.2047 C.3     1  UNL1        0.1136
     18 N         143.6861  143.1237  159.0493 N.pl3   1  UNL1       -0.2897
     19 C         144.9393  142.5474  158.4601 C.3     1  UNL1        0.1136
     20 N         139.3950  140.3509  166.9010 N.pl3   1  UNL1       -0.3167
     21 H         138.8303  140.6794  167.6375 H       1  UNL1        0.1482
     22 C         138.9792  139.1397  166.1199 C.3     1  UNL1        0.0950
     23 C         138.5928  139.2742  164.6768 C.3     1  UNL1        0.0965
     24 C         137.7710  140.4454  164.2264 C.3     1  UNL1        0.0757
     25 N         137.3846  140.5798  162.7832 N.3     1  UNL1       -0.2971
     26 C         137.8200  139.5431  161.7905 C.3     1  UNL1        0.0742
     27 C         138.6418  138.3718  162.2409 C.3     1  UNL1        0.0837
     28 C         139.0282  138.2374  163.6840 C.3     1  UNL1        0.2680
     29 F         139.6396  137.6751  164.9330 F       1  UNL1       -0.2042
     30 F         139.6760  137.0053  163.1250 F       1  UNL1       -0.2042
     31 H         137.7584  141.4721  162.4602 H       1  UNL1        0.1233
@<TRIPOS>BOND
     1    17    18    1
     2    18    19    1
     3    18    11    1
     4    11    12   ar
     5    12    13   ar
     6    13    14   ar
     7    14     1    1
     8     1     2   ar
     9     2     3   ar
    10     3     4   ar
    11     4     5   ar
    12     5     6   ar
    13     6     7   ar
    14     7     8   ar
    15     8     9   ar
    16     9    20    1
    17    20    22    1
    18    23    22    1
    19    23    24    1
    20    24    25    1
    21    25    26    1
    22    26    27    1
    23    27    28    1
    24    28    29    1
    25    28    30    1
    26     9    10   ar
    27    14    15   ar
    28    15    16   ar
    29    16    11   ar
    30    10     1   ar
    31     8     3   ar
    32    28    23    1
    33    20    21    1
    34    25    31    1
@<TRIPOS>MOLECULE
*****
 31 34 0 0 0
SMALL
GASTEIGER

@<TRIPOS>ATOM
      1 C         139.6672  142.6865  158.6873 C.ar    1  UNL1        0.0858
      2 C         140.8445  141.7731  158.8590 C.ar    1  UNL1        0.0399
      3 C         142.0018  142.1941  159.7156 C.ar    1  UNL1        0.1032
      4 N         143.1791  141.2807  159.8873 N.ar    1  UNL1       -0.2405
      5 C         144.3363  141.7017  160.7438 C.ar    1  UNL1        0.1195
      6 C         144.3162  143.0361  161.4286 C.ar    1  UNL1        0.1196
      7 N         143.1388  143.9495  161.2568 N.ar    1  UNL1       -0.2379
      8 C         141.9817  143.5285  160.4003 C.ar    1  UNL1        0.1302
      9 C         140.8043  144.4420  160.2286 C.ar    1  UNL1        0.1477
     10 N         139.6471  144.0210  159.3721 N.ar    1  UNL1       -0.2292
     11 C         136.1955  141.4236  156.1178 C.ar    1  UNL1        0.1318
     12 C         136.8766  142.7361  155.8659 C.ar    1  UNL1        0.0344
     13 C         138.0338  143.1571  156.7224 C.ar    1  UNL1        0.0059
     14 C         138.5100  142.2656  157.8307 C.ar    1  UNL1        0.0370
     15 C         137.8289  140.9531  158.0826 C.ar    1  UNL1        0.1018
     16 N         136.6716  140.5321  157.2262 N.ar    1  UNL1       -0.2291
     17 C         133.8301  140.3735  155.8894 C.3     1  UNL1        0.1136
     18 N         135.0383  141.0026  155.2613 N.pl3   1  UNL1       -0.2897
     19 C         135.0893  141.2107  153.7767 C.3     1  UNL1        0.1136
     20 N         140.7841  145.7764  160.9133 N.pl3   1  UNL1       -0.3167
     21 H         141.3685  146.5019  160.5949 H       1  UNL1        0.1482
     22 C         139.8737  146.0054  162.0832 C.3     1  UNL1        0.0950
     23 C         139.8246  145.0075  163.2020 C.3     1  UNL1        0.0965
     24 C         141.0737  144.6693  163.9606 C.3     1  UNL1        0.0757
     25 N         141.0246  143.6714  165.0795 N.3     1  UNL1       -0.2971
     26 C         139.7266  143.0117  165.4397 C.3     1  UNL1        0.0742
     27 C         138.4775  143.3499  164.6811 C.3     1  UNL1        0.0837
     28 C         138.5265  144.3478  163.5623 C.3     1  UNL1        0.2680
     29 F         138.0696  145.2220  162.4323 F       1  UNL1       -0.2042
     30 F         137.0697  143.9917  163.5301 F       1  UNL1       -0.2042
     31 H         141.3532  144.1518  165.9171 H       1  UNL1        0.1233
@<TRIPOS>BOND
     1    17    18    1
     2    18    19    1
     3    18    11    1
     4    11    12   ar
     5    12    13   ar
     6    13    14   ar
     7    14     1    1
     8     1     2   ar
     9     2     3   ar
    10     3     4   ar
    11     4     5   ar
    12     5     6   ar
    13     6     7   ar
    14     7     8   ar
    15     8     9   ar
    16     9    20    1
    17    20    22    1
    18    23    22    1
    19    23    24    1
    20    24    25    1
    21    25    26    1
    22    26    27    1
    23    27    28    1
    24    28    29    1
    25    28    30    1
    26     9    10   ar
    27    14    15   ar
    28    15    16   ar
    29    16    11   ar
    30    10     1   ar
    31     8     3   ar
    32    28    23    1
    33    20    21    1
    34    25    31    1
@<TRIPOS>MOLECULE
*****
 31 34 0 0 0
SMALL
GASTEIGER

@<TRIPOS>ATOM
      1 C         142.3986  141.9993  163.8312 C.ar    1  UNL1        0.0858
      2 C         142.2481  143.1493  162.8800 C.ar    1  UNL1        0.0399
      3 C         142.4831  142.9446  161.4127 C.ar    1  UNL1        0.1032
      4 N         142.3326  144.0946  160.4614 N.ar    1  UNL1       -0.2405
      5 C         142.5676  143.8899  158.9942 C.ar    1  UNL1        0.1195
      6 C         142.9531  142.5352  158.4782 C.ar    1  UNL1        0.1196
      7 N         143.1036  141.3853  159.4294 N.ar    1  UNL1       -0.2379
      8 C         142.8686  141.5900  160.8967 C.ar    1  UNL1        0.1302
      9 C         143.0191  140.4400  161.8480 C.ar    1  UNL1        0.1477
     10 N         142.7841  140.6447  163.3152 N.ar    1  UNL1       -0.2292
     11 C         141.6936  142.6133  168.2330 C.ar    1  UNL1        0.1318
     12 C         143.0673  142.2772  167.7332 C.ar    1  UNL1        0.0344
     13 C         143.3023  142.0725  166.2660 C.ar    1  UNL1        0.0059
     14 C         142.1636  142.2040  165.2986 C.ar    1  UNL1        0.0370
     15 C         140.7899  142.5402  165.7984 C.ar    1  UNL1        0.1018
     16 N         140.5548  142.7448  167.2656 N.ar    1  UNL1       -0.2291
     17 C         140.0591  142.8427  170.2395 C.3     1  UNL1        0.1136
     18 N         141.4586  142.8180  169.7003 N.pl3   1  UNL1       -0.2897
     19 C         142.6231  142.9980  170.6285 C.3     1  UNL1        0.1136
     20 N         143.4046  139.0853  161.3320 N.pl3   1  UNL1       -0.3167
     21 H         144.1835  138.9882  160.7378 H       1  UNL1        0.1482
     22 C         142.6034  137.8785  161.7213 C.3     1  UNL1        0.0950
     23 C         141.1082  137.9655  161.8034 C.3     1  UNL1        0.0965
     24 C         140.3177  138.4305  160.6164 C.3     1  UNL1        0.0757
     25 N         138.8224  138.5175  160.6985 N.3     1  UNL1       -0.2971
     26 C         138.1177  138.1395  161.9675 C.3     1  UNL1        0.0742
     27 C         138.9082  137.6746  163.1546 C.3     1  UNL1        0.0837
     28 C         140.4034  137.5875  163.0725 C.3     1  UNL1        0.2680
     29 F         141.8254  137.3394  163.4803 F       1  UNL1       -0.2042
     30 F         140.1925  137.1234  164.4832 F       1  UNL1       -0.2042
     31 H         138.4516  137.9137  159.9648 H       1  UNL1        0.1233
@<TRIPOS>BOND
     1    17    18    1
     2    18    19    1
     3    18    11    1
     4    11    12   ar
     5    12    13   ar
     6    13    14   ar
     7    14     1    1
     8     1     2   ar
     9     2     3   ar
    10     3     4   ar
    11     4     5   ar
    12     5     6   ar
    13     6     7   ar
    14     7     8   ar
    15     8     9   ar
    16     9    20    1
    17    20    22    1
    18    23    22    1
    19    23    24    1
    20    24    25    1
    21    25    26    1
    22    26    27    1
    23    27    28    1
    24    28    29    1
    25    28    30    1
    26     9    10   ar
    27    14    15   ar
    28    15    16   ar
    29    16    11   ar
    30    10     1   ar
    31     8     3   ar
    32    28    23    1
    33    20    21    1
    34    25    31    1
