@<TRIPOS>MOLECULE
*****
 38 42 0 0 0
SMALL
GASTEIGER

@<TRIPOS>ATOM
      1 C         142.9944  138.9920  159.5013 C.ar    1  UNL1        0.0503
      2 C         142.6709  140.3744  159.0173 C.ar    1  UNL1        0.0143
      3 C         143.1799  141.5698  159.7670 C.ar    1  UNL1       -0.0029
      4 C         144.0123  141.3828  161.0007 C.ar    1  UNL1       -0.0208
      5 C         144.3359  140.0005  161.4848 C.ar    1  UNL1       -0.0029
      6 C         143.8269  138.8051  160.7350 C.ar    1  UNL1        0.0143
      7 C         142.9269  137.5535  157.3389 C.2     1  UNL1        0.2313
      8 O         143.8773  138.5059  156.6757 O.2     1  UNL1       -0.2744
      9 N         142.4855  137.7966  158.7517 N.am    1  UNL1       -0.2836
     10 H         141.8617  137.1715  159.1870 H       1  UNL1        0.1549
     11 N         144.1020  131.4017  157.8037 N.pl3   1  UNL1       -0.3375
     12 C         143.4460  132.6224  157.2298 C.ar    1  UNL1        0.1560
     13 N         143.6657  134.0360  157.6810 N.ar    1  UNL1       -0.2287
     14 C         142.8106  134.9312  156.8339 C.ar    1  UNL1        0.0712
     15 C         142.0624  134.0709  155.8593 C.ar    1  UNL1        0.0239
     16 S         142.4551  132.6440  156.1039 S.2     1  UNL1       -0.0567
     17 C         141.2073  134.9661  155.0122 C.3     1  UNL1        0.0351
     18 C         141.4271  136.3796  155.4634 C.3     1  UNL1        0.0204
     19 C         142.4180  136.3581  156.5893 C.3     1  UNL1        0.1174
     20 H         144.7426  131.4901  158.5461 H       1  UNL1        0.1442
     21 H         143.8919  130.5121  157.4381 H       1  UNL1        0.1442
     22 C         144.5213  142.5783  161.7503 C.3     1  UNL1        0.0420
     23 C         143.5893  143.3734  162.6158 C.3     1  UNL1        0.0585
     24 C         143.7567  144.8134  163.0011 C.3     1  UNL1        0.0175
     25 C         142.5971  145.1981  163.8714 C.3     1  UNL1        0.0199
     26 C         141.7130  143.9960  164.0239 C.3     1  UNL1        0.0855
     27 N         142.3263  142.8682  163.2479 N.3     1  UNL1       -0.2971
     28 H         141.6792  142.5535  162.5250 H       1  UNL1        0.1233
     29 C         140.4394  143.9327  164.8138 C.3     1  UNL1        0.1470
     30 O         139.4551  145.0622  164.7413 O.3     1  UNL1       -0.3787
     31 H         139.7930  145.7478  164.1441 H       1  UNL1        0.2108
     32 C         140.1502  142.7399  165.6761 C.ar    1  UNL1        0.0064
     33 C         140.7007  142.6707  167.0697 C.ar    1  UNL1       -0.0019
     34 C         140.4114  141.4779  167.9320 C.ar    1  UNL1        0.0006
     35 C         139.5717  140.3543  167.4008 C.ar    1  UNL1        0.0114
     36 C         139.0212  140.4235  166.0071 C.ar    1  UNL1        0.0574
     37 CL        138.1815  139.2999  165.4758 Cl      1  UNL1       -0.0823
     38 C         139.3105  141.6163  165.1448 C.ar    1  UNL1        0.0095
@<TRIPOS>BOND
     1    11    12    1
     2    12    13   ar
     3    13    14   ar
     4    14    15   ar
     5    15    16   ar
     6    15    17    1
     7    17    18    1
     8    18    19    1
     9    19     7    1
    10     7     8    2
    11     7     9   am
    12     9     1    1
    13     1     2   ar
    14     2     3   ar
    15     3     4   ar
    16     4    22    1
    17    23    22    1
    18    23    24    1
    19    24    25    1
    20    26    25    1
    21    26    29    1
    22    29    30    1
    23    29    32    1
    24    32    33   ar
    25    33    34   ar
    26    34    35   ar
    27    35    36   ar
    28    36    37    1
    29    36    38   ar
    30    26    27    1
    31     4     5   ar
    32     5     6   ar
    33    16    12   ar
    34     6     1   ar
    35    19    14    1
    36    27    23    1
    37    38    32   ar
    38    11    20    1
    39    11    21    1
    40     9    10    1
    41    30    31    1
    42    27    28    1
@<TRIPOS>MOLECULE
*****
 38 42 0 0 0
SMALL
GASTEIGER

@<TRIPOS>ATOM
      1 C         139.4091  138.9932  159.6652 C.ar    1  UNL1        0.0503
      2 C         140.9080  139.0044  159.7201 C.ar    1  UNL1        0.0143
      3 C         141.6171  138.5184  160.9494 C.ar    1  UNL1       -0.0029
      4 C         140.8273  138.0212  162.1237 C.ar    1  UNL1       -0.0208
      5 C         139.3284  138.0100  162.0688 C.ar    1  UNL1       -0.0029
      6 C         138.6193  138.4961  160.8395 C.ar    1  UNL1        0.0143
      7 C         138.1581  140.8770  158.3860 C.2     1  UNL1        0.2313
      8 O         138.3254  141.7889  159.5652 O.2     1  UNL1       -0.2744
      9 N         138.6999  139.4792  158.4360 N.am    1  UNL1       -0.2836
     10 H         138.5901  138.8808  157.6621 H       1  UNL1        0.1549
     11 N         132.5793  139.5048  155.8492 N.pl3   1  UNL1       -0.3375
     12 C         133.9014  140.2087  155.9304 C.ar    1  UNL1        0.1560
     13 N         134.9342  140.0241  157.0024 N.ar    1  UNL1       -0.2287
     14 C         136.0939  140.9221  156.6884 C.ar    1  UNL1        0.0712
     15 C         135.7778  141.6618  155.4223 C.ar    1  UNL1        0.0239
     16 S         134.4227  141.2209  154.9539 S.2     1  UNL1       -0.0567
     17 C         136.9375  142.5599  155.1083 C.3     1  UNL1        0.0351
     18 C         137.9703  142.3752  156.1803 C.3     1  UNL1        0.0204
     19 C         137.4490  141.3630  157.1568 C.3     1  UNL1        0.1174
     20 H         132.3251  138.8533  156.5422 H       1  UNL1        0.1442
     21 H         131.9657  139.6942  155.1029 H       1  UNL1        0.1442
     22 C         141.5365  137.5352  163.3529 C.3     1  UNL1        0.0420
     23 C         141.9971  138.5160  164.3901 C.3     1  UNL1        0.0585
     24 C         142.7292  138.1818  165.6560 C.3     1  UNL1        0.0175
     25 C         142.9911  139.4624  166.3918 C.3     1  UNL1        0.0199
     26 C         142.4210  140.5880  165.5807 C.3     1  UNL1        0.0855
     27 N         141.8066  140.0031  164.3436 N.3     1  UNL1       -0.2971
     28 H         142.2645  140.3850  163.5160 H       1  UNL1        0.1233
     29 C         142.4585  142.0431  165.9432 C.3     1  UNL1        0.1470
     30 O         143.3066  142.5088  167.0894 O.3     1  UNL1       -0.3787
     31 H         143.7615  141.7488  167.4848 H       1  UNL1        0.2108
     32 C         141.6481  143.0324  165.1593 C.ar    1  UNL1        0.0064
     33 C         142.3156  143.9125  164.1446 C.ar    1  UNL1       -0.0019
     34 C         141.5052  144.9018  163.3607 C.ar    1  UNL1        0.0006
     35 C         140.0271  145.0111  163.5917 C.ar    1  UNL1        0.0114
     36 C         139.3595  144.1310  164.6064 C.ar    1  UNL1        0.0574
     37 CL        137.8815  144.2402  164.8374 Cl      1  UNL1       -0.0823
     38 C         140.1700  143.1417  165.3903 C.ar    1  UNL1        0.0095
@<TRIPOS>BOND
     1    11    12    1
     2    12    13   ar
     3    13    14   ar
     4    14    15   ar
     5    15    16   ar
     6    15    17    1
     7    17    18    1
     8    18    19    1
     9    19     7    1
    10     7     8    2
    11     7     9   am
    12     9     1    1
    13     1     2   ar
    14     2     3   ar
    15     3     4   ar
    16     4    22    1
    17    23    22    1
    18    23    24    1
    19    24    25    1
    20    26    25    1
    21    26    29    1
    22    29    30    1
    23    29    32    1
    24    32    33   ar
    25    33    34   ar
    26    34    35   ar
    27    35    36   ar
    28    36    37    1
    29    36    38   ar
    30    26    27    1
    31     4     5   ar
    32     5     6   ar
    33    16    12   ar
    34     6     1   ar
    35    19    14    1
    36    27    23    1
    37    38    32   ar
    38    11    20    1
    39    11    21    1
    40     9    10    1
    41    30    31    1
    42    27    28    1
@<TRIPOS>MOLECULE
*****
 38 42 0 0 0
SMALL
GASTEIGER

@<TRIPOS>ATOM
      1 C         137.8228  139.6100  161.0586 C.ar    1  UNL1        0.0503
      2 C         138.3486  138.2386  161.3629 C.ar    1  UNL1        0.0143
      3 C         138.7032  137.8671  162.7723 C.ar    1  UNL1       -0.0029
      4 C         138.5321  138.8670  163.8773 C.ar    1  UNL1       -0.0208
      5 C         138.0063  140.2384  163.5729 C.ar    1  UNL1       -0.0029
      6 C         137.6516  140.6099  162.1635 C.ar    1  UNL1        0.0143
      7 C         138.4541  140.7270  158.7994 C.2     1  UNL1        0.2313
      8 O         139.7947  141.1008  159.3589 O.2     1  UNL1       -0.2744
      9 N         137.4681  139.9816  159.6493 N.am    1  UNL1       -0.2836
     10 H         136.5882  139.7362  159.2821 H       1  UNL1        0.1549
     11 N         133.2062  140.0973  155.4074 N.pl3   1  UNL1       -0.3375
     12 C         134.6290  140.5055  155.6503 C.ar    1  UNL1        0.1560
     13 N         135.3931  140.3221  156.9281 N.ar    1  UNL1       -0.2287
     14 C         136.7739  140.8720  156.7256 C.ar    1  UNL1        0.0712
     15 C         136.8632  141.3953  155.3227 C.ar    1  UNL1        0.0239
     16 S         135.5377  141.1688  154.6582 S.2     1  UNL1       -0.0567
     17 C         138.2440  141.9453  155.1202 C.3     1  UNL1        0.0351
     18 C         139.0080  141.7618  156.3979 C.3     1  UNL1        0.0204
     19 C         138.0994  141.0985  157.3901 C.3     1  UNL1        0.1174
     20 H         132.6885  139.6659  156.1251 H       1  UNL1        0.1442
     21 H         132.7901  140.2608  154.5303 H       1  UNL1        0.1442
     22 C         138.8867  138.4954  165.2866 C.3     1  UNL1        0.0420
     23 C         139.7370  139.4140  166.1131 C.3     1  UNL1        0.0585
     24 C         139.4667  139.8303  167.5286 C.3     1  UNL1        0.0175
     25 C         140.5695  140.7512  167.9595 C.3     1  UNL1        0.0199
     26 C         141.5214  140.9041  166.8104 C.3     1  UNL1        0.0855
     27 N         141.0069  140.0777  165.6692 N.3     1  UNL1       -0.2971
     28 H         141.6967  139.3704  165.4154 H       1  UNL1        0.1233
     29 C         142.7688  141.7372  166.8036 C.3     1  UNL1        0.1470
     30 O         143.2896  142.3182  168.0847 O.3     1  UNL1       -0.3787
     31 H         142.7070  142.0615  168.8166 H       1  UNL1        0.2108
     32 C         143.4953  141.9892  165.5158 C.ar    1  UNL1        0.0064
     33 C         144.3027  140.8945  164.8834 C.ar    1  UNL1       -0.0019
     34 C         145.0292  141.1466  163.5956 C.ar    1  UNL1        0.0006
     35 C         144.9485  142.4932  162.9400 C.ar    1  UNL1        0.0114
     36 C         144.1412  143.5880  163.5723 C.ar    1  UNL1        0.0574
     37 CL        144.0604  144.9347  162.9168 Cl      1  UNL1       -0.0823
     38 C         143.4146  143.3359  164.8602 C.ar    1  UNL1        0.0095
@<TRIPOS>BOND
     1    11    12    1
     2    12    13   ar
     3    13    14   ar
     4    14    15   ar
     5    15    16   ar
     6    15    17    1
     7    17    18    1
     8    18    19    1
     9    19     7    1
    10     7     8    2
    11     7     9   am
    12     9     1    1
    13     1     2   ar
    14     2     3   ar
    15     3     4   ar
    16     4    22    1
    17    23    22    1
    18    23    24    1
    19    24    25    1
    20    26    25    1
    21    26    29    1
    22    29    30    1
    23    29    32    1
    24    32    33   ar
    25    33    34   ar
    26    34    35   ar
    27    35    36   ar
    28    36    37    1
    29    36    38   ar
    30    26    27    1
    31     4     5   ar
    32     5     6   ar
    33    16    12   ar
    34     6     1   ar
    35    19    14    1
    36    27    23    1
    37    38    32   ar
    38    11    20    1
    39    11    21    1
    40     9    10    1
    41    30    31    1
    42    27    28    1
@<TRIPOS>MOLECULE
*****
 38 42 0 0 0
SMALL
GASTEIGER

@<TRIPOS>ATOM
      1 C         139.3893  138.8853  159.7017 C.ar    1  UNL1        0.0503
      2 C         140.8852  138.8212  159.7927 C.ar    1  UNL1        0.0143
      3 C         141.5399  138.3380  161.0528 C.ar    1  UNL1       -0.0029
      4 C         140.6988  137.9187  162.2219 C.ar    1  UNL1       -0.0208
      5 C         139.2029  137.9827  162.1309 C.ar    1  UNL1       -0.0029
      6 C         138.5482  138.4660  160.8708 C.ar    1  UNL1        0.0143
      7 C         138.1805  140.7606  158.3706 C.2     1  UNL1        0.2313
      8 O         138.2812  141.6695  159.5597 O.2     1  UNL1       -0.2744
      9 N         138.7345  139.3685  158.4417 N.am    1  UNL1       -0.2836
     10 H         138.6684  138.7720  157.6613 H       1  UNL1        0.1549
     11 N         132.5509  139.6908  155.8006 N.pl3   1  UNL1       -0.3375
     12 C         133.9199  140.2994  155.8744 C.ar    1  UNL1        0.1560
     13 N         134.9217  140.0861  156.9702 N.ar    1  UNL1       -0.2287
     14 C         136.1484  140.8831  156.6384 C.ar    1  UNL1        0.0712
     15 C         135.9047  141.5890  155.3375 C.ar    1  UNL1        0.0239
     16 S         134.5274  141.2282  154.8653 S.2     1  UNL1       -0.0567
     17 C         137.1314  142.3860  155.0057 C.3     1  UNL1        0.0351
     18 C         138.1331  142.1726  156.1015 C.3     1  UNL1        0.0204
     19 C         137.5257  141.2439  157.1106 C.3     1  UNL1        0.1174
     20 H         132.2402  139.0898  156.5158 H       1  UNL1        0.1442
     21 H         131.9631  139.8923  155.0369 H       1  UNL1        0.1442
     22 C         141.3536  137.4355  163.4820 C.3     1  UNL1        0.0420
     23 C         141.8503  138.4233  164.4956 C.3     1  UNL1        0.0585
     24 C         142.8609  138.1514  165.5701 C.3     1  UNL1        0.0175
     25 C         143.0588  139.4166  166.3512 C.3     1  UNL1        0.0199
     26 C         142.1704  140.4705  165.7594 C.3     1  UNL1        0.0855
     27 N         141.4235  139.8566  164.6126 N.3     1  UNL1       -0.2971
     28 H         141.6434  140.3547  163.7500 H       1  UNL1        0.1233
     29 C         142.0502  141.8891  166.2316 C.3     1  UNL1        0.1470
     30 O         141.8726  142.9980  165.2373 O.3     1  UNL1       -0.3787
     31 H         141.8566  142.6287  164.3405 H       1  UNL1        0.2108
     32 C         142.1074  142.1988  167.6982 C.ar    1  UNL1        0.0064
     33 C         143.4309  142.2544  168.4019 C.ar    1  UNL1       -0.0019
     34 C         143.4881  142.5640  169.8685 C.ar    1  UNL1        0.0006
     35 C         142.2219  142.8182  170.6314 C.ar    1  UNL1        0.0114
     36 C         140.8984  142.7626  169.9276 C.ar    1  UNL1        0.0574
     37 CL        139.6321  143.0167  170.6905 Cl      1  UNL1       -0.0823
     38 C         140.8412  142.4529  168.4611 C.ar    1  UNL1        0.0095
@<TRIPOS>BOND
     1    11    12    1
     2    12    13   ar
     3    13    14   ar
     4    14    15   ar
     5    15    16   ar
     6    15    17    1
     7    17    18    1
     8    18    19    1
     9    19     7    1
    10     7     8    2
    11     7     9   am
    12     9     1    1
    13     1     2   ar
    14     2     3   ar
    15     3     4   ar
    16     4    22    1
    17    23    22    1
    18    23    24    1
    19    24    25    1
    20    26    25    1
    21    26    29    1
    22    29    30    1
    23    29    32    1
    24    32    33   ar
    25    33    34   ar
    26    34    35   ar
    27    35    36   ar
    28    36    37    1
    29    36    38   ar
    30    26    27    1
    31     4     5   ar
    32     5     6   ar
    33    16    12   ar
    34     6     1   ar
    35    19    14    1
    36    27    23    1
    37    38    32   ar
    38    11    20    1
    39    11    21    1
    40     9    10    1
    41    30    31    1
    42    27    28    1
@<TRIPOS>MOLECULE
*****
 38 42 0 0 0
SMALL
GASTEIGER

@<TRIPOS>ATOM
      1 C         139.8413  144.8455  161.7638 C.ar    1  UNL1        0.0503
      2 C         141.0012  145.0932  162.6821 C.ar    1  UNL1        0.0143
      3 C         140.9102  144.7021  164.1274 C.ar    1  UNL1       -0.0029
      4 C         139.6595  144.0633  164.6543 C.ar    1  UNL1       -0.0208
      5 C         138.4997  143.8156  163.7360 C.ar    1  UNL1       -0.0029
      6 C         138.5906  144.2067  162.2907 C.ar    1  UNL1        0.0143
      7 C         140.8127  144.4596  159.3852 C.2     1  UNL1        0.2313
      8 O         141.6024  143.2916  159.8972 O.2     1  UNL1       -0.2744
      9 N         139.9322  145.2366  160.3185 N.am    1  UNL1       -0.2836
     10 H         139.4139  146.0032  159.9825 H       1  UNL1        0.1549
     11 N         138.1388  149.0411  156.0234 N.pl3   1  UNL1       -0.3375
     12 C         139.0195  147.8457  156.2363 C.ar    1  UNL1        0.1560
     13 N         139.2284  147.1246  157.5349 N.ar    1  UNL1       -0.2287
     14 C         140.1839  145.9947  157.2892 C.ar    1  UNL1        0.0712
     15 C         140.5656  146.0175  155.8388 C.ar    1  UNL1        0.0239
     16 S         139.8460  147.1615  155.1881 S.2     1  UNL1       -0.0567
     17 C         141.5212  144.8876  155.5931 C.3     1  UNL1        0.0351
     18 C         141.7300  144.1666  156.8917 C.3     1  UNL1        0.0204
     19 C         140.9036  144.8507  157.9400 C.3     1  UNL1        0.1174
     20 H         137.6328  149.4204  156.7779 H       1  UNL1        0.1442
     21 H         138.0667  149.4464  155.1290 H       1  UNL1        0.1442
     22 C         139.5686  143.6722  166.0996 C.3     1  UNL1        0.0420
     23 C         140.4602  142.5950  166.6426 C.3     1  UNL1        0.0585
     24 C         141.0299  142.5377  168.0290 C.3     1  UNL1        0.0175
     25 C         141.8604  141.2933  168.1378 C.3     1  UNL1        0.0199
     26 C         141.8038  140.5815  166.8186 C.3     1  UNL1        0.0855
     27 N         140.9385  141.3860  165.8945 N.3     1  UNL1       -0.2971
     28 H         140.1402  140.8270  165.5935 H       1  UNL1        0.1233
     29 C         142.4919  139.2917  166.4826 C.3     1  UNL1        0.1470
     30 O         143.3430  138.6059  167.5098 O.3     1  UNL1       -0.3787
     31 H         143.3417  139.1247  168.3294 H       1  UNL1        0.2108
     32 C         142.3288  138.6878  165.1192 C.ar    1  UNL1        0.0064
     33 C         141.2044  137.7316  164.8521 C.ar    1  UNL1       -0.0019
     34 C         141.0413  137.1276  163.4888 C.ar    1  UNL1        0.0006
     35 C         142.0027  137.4798  162.3926 C.ar    1  UNL1        0.0114
     36 C         143.1271  138.4359  162.6597 C.ar    1  UNL1        0.0574
     37 CL        144.0885  138.7881  161.5635 Cl      1  UNL1       -0.0823
     38 C         143.2902  139.0399  164.0230 C.ar    1  UNL1        0.0095
@<TRIPOS>BOND
     1    11    12    1
     2    12    13   ar
     3    13    14   ar
     4    14    15   ar
     5    15    16   ar
     6    15    17    1
     7    17    18    1
     8    18    19    1
     9    19     7    1
    10     7     8    2
    11     7     9   am
    12     9     1    1
    13     1     2   ar
    14     2     3   ar
    15     3     4   ar
    16     4    22    1
    17    23    22    1
    18    23    24    1
    19    24    25    1
    20    26    25    1
    21    26    29    1
    22    29    30    1
    23    29    32    1
    24    32    33   ar
    25    33    34   ar
    26    34    35   ar
    27    35    36   ar
    28    36    37    1
    29    36    38   ar
    30    26    27    1
    31     4     5   ar
    32     5     6   ar
    33    16    12   ar
    34     6     1   ar
    35    19    14    1
    36    27    23    1
    37    38    32   ar
    38    11    20    1
    39    11    21    1
    40     9    10    1
    41    30    31    1
    42    27    28    1
@<TRIPOS>MOLECULE
*****
 38 42 0 0 0
SMALL
GASTEIGER

@<TRIPOS>ATOM
      1 C         143.0171  138.6305  159.5021 C.ar    1  UNL1        0.0503
      2 C         143.7240  138.2948  160.7818 C.ar    1  UNL1        0.0143
      3 C         144.2598  139.3922  161.6528 C.ar    1  UNL1       -0.0029
      4 C         144.0887  140.8253  161.2441 C.ar    1  UNL1       -0.0208
      5 C         143.3818  141.1610  159.9644 C.ar    1  UNL1       -0.0029
      6 C         142.8460  140.0635  159.0935 C.ar    1  UNL1        0.0143
      7 C         142.9332  137.4189  157.2053 C.2     1  UNL1        0.2313
      8 O         143.9208  138.4021  156.6506 O.2     1  UNL1       -0.2744
      9 N         142.4813  137.5331  158.6311 N.am    1  UNL1       -0.2836
     10 H         141.8330  136.8877  158.9952 H       1  UNL1        0.1549
     11 N         143.2987  131.1569  157.5135 N.pl3   1  UNL1       -0.3375
     12 C         142.8781  132.4680  156.9185 C.ar    1  UNL1        0.1560
     13 N         143.1973  133.8275  157.4661 N.ar    1  UNL1       -0.2287
     14 C         142.5810  134.8496  156.5575 C.ar    1  UNL1        0.0712
     15 C         141.8810  134.1218  155.4483 C.ar    1  UNL1        0.0239
     16 S         142.0646  132.6499  155.6715 S.2     1  UNL1       -0.0567
     17 C         141.2647  135.1439  154.5397 C.3     1  UNL1        0.0351
     18 C         141.5839  136.5033  155.0873 C.3     1  UNL1        0.0204
     19 C         142.3973  136.3215  156.3343 C.3     1  UNL1        0.1174
     20 H         143.8346  131.1403  158.3392 H       1  UNL1        0.1442
     21 H         143.0388  130.3129  157.0783 H       1  UNL1        0.1442
     22 C         144.6245  141.9227  162.1151 C.3     1  UNL1        0.0420
     23 C         143.9362  142.2607  163.4043 C.3     1  UNL1        0.0585
     24 C         144.6052  142.4903  164.7271 C.3     1  UNL1        0.0175
     25 C         143.5405  142.8000  165.7374 C.3     1  UNL1        0.0199
     26 C         142.2136  142.7617  165.0389 C.3     1  UNL1        0.0855
     27 N         142.4581  142.4284  163.5970 N.3     1  UNL1       -0.2971
     28 H         142.1153  143.1842  163.0041 H       1  UNL1        0.1233
     29 C         140.8768  143.0126  165.6714 C.3     1  UNL1        0.1470
     30 O         139.9729  144.0743  165.1185 O.3     1  UNL1       -0.3787
     31 H         140.4010  144.5003  164.3594 H       1  UNL1        0.2108
     32 C         140.4439  142.2018  166.8568 C.ar    1  UNL1        0.0064
     33 C         139.9716  140.7906  166.6682 C.ar    1  UNL1       -0.0019
     34 C         139.5387  139.9798  167.8536 C.ar    1  UNL1        0.0006
     35 C         139.5781  140.5801  169.2276 C.ar    1  UNL1        0.0114
     36 C         140.0504  141.9912  169.4163 C.ar    1  UNL1        0.0574
     37 CL        140.0899  142.5916  170.7903 Cl      1  UNL1       -0.0823
     38 C         140.4833  142.8020  168.2309 C.ar    1  UNL1        0.0095
@<TRIPOS>BOND
     1    11    12    1
     2    12    13   ar
     3    13    14   ar
     4    14    15   ar
     5    15    16   ar
     6    15    17    1
     7    17    18    1
     8    18    19    1
     9    19     7    1
    10     7     8    2
    11     7     9   am
    12     9     1    1
    13     1     2   ar
    14     2     3   ar
    15     3     4   ar
    16     4    22    1
    17    23    22    1
    18    23    24    1
    19    24    25    1
    20    26    25    1
    21    26    29    1
    22    29    30    1
    23    29    32    1
    24    32    33   ar
    25    33    34   ar
    26    34    35   ar
    27    35    36   ar
    28    36    37    1
    29    36    38   ar
    30    26    27    1
    31     4     5   ar
    32     5     6   ar
    33    16    12   ar
    34     6     1   ar
    35    19    14    1
    36    27    23    1
    37    38    32   ar
    38    11    20    1
    39    11    21    1
    40     9    10    1
    41    30    31    1
    42    27    28    1
@<TRIPOS>MOLECULE
*****
 38 42 0 0 0
SMALL
GASTEIGER

@<TRIPOS>ATOM
      1 C         141.3924  144.4011  160.1494 C.ar    1  UNL1        0.0503
      2 C         142.5224  143.4416  159.9204 C.ar    1  UNL1        0.0143
      3 C         143.4801  143.1317  161.0325 C.ar    1  UNL1       -0.0029
      4 C         143.3079  143.7813  162.3735 C.ar    1  UNL1       -0.0208
      5 C         142.1779  144.7408  162.6025 C.ar    1  UNL1       -0.0029
      6 C         141.2202  145.0507  161.4904 C.ar    1  UNL1        0.0143
      7 C         140.8712  145.5729  157.8899 C.2     1  UNL1        0.2313
      8 O         142.2655  146.1247  157.8544 O.2     1  UNL1       -0.2744
      9 N         140.4346  144.7111  159.0374 N.am    1  UNL1       -0.2836
     10 H         139.5195  144.3489  159.0606 H       1  UNL1        0.1549
     11 N         136.5764  142.1291  154.8670 N.pl3   1  UNL1       -0.3375
     12 C         137.3580  143.3740  155.1660 C.ar    1  UNL1        0.1560
     13 N         138.4267  143.5149  156.2091 N.ar    1  UNL1       -0.2287
     14 C         138.9373  144.9245  156.1622 C.ar    1  UNL1        0.0712
     15 C         138.1842  145.6549  155.0901 C.ar    1  UNL1        0.0239
     16 S         137.2082  144.6966  154.4744 S.2     1  UNL1       -0.0567
     17 C         138.6949  147.0645  155.0432 C.3     1  UNL1        0.0351
     18 C         139.7635  147.2053  156.0862 C.3     1  UNL1        0.0204
     19 C         139.9134  145.8828  156.7778 C.3     1  UNL1        0.1174
     20 H         136.7480  141.3055  155.3783 H       1  UNL1        0.1442
     21 H         135.8918  142.1358  154.1595 H       1  UNL1        0.1442
     22 C         144.2657  143.4713  163.4856 C.3     1  UNL1        0.0420
     23 C         144.4041  142.0640  163.9857 C.3     1  UNL1        0.0585
     24 C         145.6162  141.1922  163.8413 C.3     1  UNL1        0.0175
     25 C         145.3160  139.8707  164.4844 C.3     1  UNL1        0.0199
     26 C         143.9184  139.9258  165.0264 C.3     1  UNL1        0.0855
     27 N         143.3549  141.2813  164.7182 N.3     1  UNL1       -0.2971
     28 H         143.1087  141.7591  165.5851 H       1  UNL1        0.1233
     29 C         143.2090  138.8196  165.7496 C.3     1  UNL1        0.1470
     30 O         143.9027  138.0806  166.8553 O.3     1  UNL1       -0.3787
     31 H         144.7959  138.4399  166.9737 H       1  UNL1        0.2108
     32 C         141.8059  138.4524  165.3670 C.ar    1  UNL1        0.0064
     33 C         141.5635  137.4265  164.2999 C.ar    1  UNL1       -0.0019
     34 C         140.1603  137.0593  163.9174 C.ar    1  UNL1        0.0006
     35 C         138.9995  137.7180  164.6019 C.ar    1  UNL1        0.0114
     36 C         139.2419  138.7439  165.6690 C.ar    1  UNL1        0.0574
     37 CL        138.0812  139.4027  166.3536 Cl      1  UNL1       -0.0823
     38 C         140.6451  139.1111  166.0515 C.ar    1  UNL1        0.0095
@<TRIPOS>BOND
     1    11    12    1
     2    12    13   ar
     3    13    14   ar
     4    14    15   ar
     5    15    16   ar
     6    15    17    1
     7    17    18    1
     8    18    19    1
     9    19     7    1
    10     7     8    2
    11     7     9   am
    12     9     1    1
    13     1     2   ar
    14     2     3   ar
    15     3     4   ar
    16     4    22    1
    17    23    22    1
    18    23    24    1
    19    24    25    1
    20    26    25    1
    21    26    29    1
    22    29    30    1
    23    29    32    1
    24    32    33   ar
    25    33    34   ar
    26    34    35   ar
    27    35    36   ar
    28    36    37    1
    29    36    38   ar
    30    26    27    1
    31     4     5   ar
    32     5     6   ar
    33    16    12   ar
    34     6     1   ar
    35    19    14    1
    36    27    23    1
    37    38    32   ar
    38    11    20    1
    39    11    21    1
    40     9    10    1
    41    30    31    1
    42    27    28    1
@<TRIPOS>MOLECULE
*****
 38 42 0 0 0
SMALL
GASTEIGER

@<TRIPOS>ATOM
      1 C         142.7962  140.5420  163.3423 C.ar    1  UNL1        0.0503
      2 C         143.5541  139.3523  162.8321 C.ar    1  UNL1        0.0143
      3 C         143.8365  139.2157  161.3652 C.ar    1  UNL1       -0.0029
      4 C         143.3612  140.2687  160.4086 C.ar    1  UNL1       -0.0208
      5 C         142.6033  141.4584  160.9188 C.ar    1  UNL1       -0.0029
      6 C         142.3209  141.5950  162.3857 C.ar    1  UNL1        0.0143
      7 C         141.1718  140.2883  165.3540 C.2     1  UNL1        0.2313
      8 O         140.1124  139.7614  164.4320 O.2     1  UNL1       -0.2744
      9 N         142.5137  140.6786  164.8091 N.am    1  UNL1       -0.2836
     10 H         143.2090  141.0245  165.4142 H       1  UNL1        0.1549
     11 N         144.4127  142.7964  170.1129 N.pl3   1  UNL1       -0.3375
     12 C         143.2464  142.0976  169.4794 C.ar    1  UNL1        0.1560
     13 N         143.1077  141.7543  168.0258 N.ar    1  UNL1       -0.2287
     14 C         141.7896  141.0639  167.8363 C.ar    1  UNL1        0.0712
     15 C         141.1136  140.9805  169.1727 C.ar    1  UNL1        0.0239
     16 S         142.0140  141.6194  170.1882 S.2     1  UNL1       -0.0567
     17 C         139.7955  140.2901  168.9832 C.3     1  UNL1        0.0351
     18 C         139.6569  139.9468  167.5296 C.3     1  UNL1        0.0204
     19 C         140.8893  140.4250  166.8208 C.3     1  UNL1        0.1174
     20 H         145.1797  143.0732  169.5612 H       1  UNL1        0.1442
     21 H         144.4113  142.9784  171.0804 H       1  UNL1        0.1442
     22 C         143.6437  140.1321  158.9418 C.3     1  UNL1        0.0420
     23 C         142.9700  139.0542  158.1455 C.3     1  UNL1        0.0585
     24 C         141.5404  138.6207  158.2810 C.3     1  UNL1        0.0175
     25 C         141.2945  137.5190  157.2931 C.3     1  UNL1        0.0199
     26 C         142.5720  137.2717  156.5471 C.3     1  UNL1        0.0855
     27 N         143.6076  138.2204  157.0738 N.3     1  UNL1       -0.2971
     28 H         143.9416  138.8214  156.3205 H       1  UNL1        0.1233
     29 C         142.7779  136.2542  155.4643 C.3     1  UNL1        0.1470
     30 O         142.9686  136.6982  154.0443 O.3     1  UNL1       -0.3787
     31 H         142.9319  137.6665  154.0006 H       1  UNL1        0.2108
     32 C         142.7930  134.7927  155.8016 C.ar    1  UNL1        0.0064
     33 C         141.7308  133.8857  155.2547 C.ar    1  UNL1       -0.0019
     34 C         141.7460  132.4242  155.5920 C.ar    1  UNL1        0.0006
     35 C         142.8233  131.8696  156.4762 C.ar    1  UNL1        0.0114
     36 C         143.8855  132.7766  157.0231 C.ar    1  UNL1        0.0574
     37 CL        144.9628  132.2221  157.9073 Cl      1  UNL1       -0.0823
     38 C         143.8703  134.2381  156.6858 C.ar    1  UNL1        0.0095
@<TRIPOS>BOND
     1    11    12    1
     2    12    13   ar
     3    13    14   ar
     4    14    15   ar
     5    15    16   ar
     6    15    17    1
     7    17    18    1
     8    18    19    1
     9    19     7    1
    10     7     8    2
    11     7     9   am
    12     9     1    1
    13     1     2   ar
    14     2     3   ar
    15     3     4   ar
    16     4    22    1
    17    23    22    1
    18    23    24    1
    19    24    25    1
    20    26    25    1
    21    26    29    1
    22    29    30    1
    23    29    32    1
    24    32    33   ar
    25    33    34   ar
    26    34    35   ar
    27    35    36   ar
    28    36    37    1
    29    36    38   ar
    30    26    27    1
    31     4     5   ar
    32     5     6   ar
    33    16    12   ar
    34     6     1   ar
    35    19    14    1
    36    27    23    1
    37    38    32   ar
    38    11    20    1
    39    11    21    1
    40     9    10    1
    41    30    31    1
    42    27    28    1
@<TRIPOS>MOLECULE
*****
 38 42 0 0 0
SMALL
GASTEIGER

@<TRIPOS>ATOM
      1 C         144.1068  142.0152  160.0683 C.ar    1  UNL1        0.0503
      2 C         144.7309  142.7300  161.2299 C.ar    1  UNL1        0.0143
      3 C         144.9731  141.9996  162.5176 C.ar    1  UNL1       -0.0029
      4 C         144.5912  140.5545  162.6436 C.ar    1  UNL1       -0.0208
      5 C         143.9671  139.8397  161.4819 C.ar    1  UNL1       -0.0029
      6 C         143.7248  140.5701  160.1943 C.ar    1  UNL1        0.0143
      7 C         142.5000  143.2855  158.4699 C.2     1  UNL1        0.2313
      8 O         141.3778  143.0952  159.4468 O.2     1  UNL1       -0.2744
      9 N         143.8645  142.7454  158.7806 N.am    1  UNL1       -0.2836
     10 H         144.6011  142.8703  158.1394 H       1  UNL1        0.1549
     11 N         138.7118  148.0439  156.9050 N.pl3   1  UNL1       -0.3375
     12 C         139.7468  146.9881  156.6515 C.ar    1  UNL1        0.1560
     13 N         140.2892  146.0239  157.6644 N.ar    1  UNL1       -0.2287
     14 C         141.2987  145.1511  156.9795 C.ar    1  UNL1        0.0712
     15 C         141.3802  145.5759  155.5432 C.ar    1  UNL1        0.0239
     16 S         140.4211  146.7112  155.3405 S.2     1  UNL1       -0.0567
     17 C         142.3897  144.7031  154.8583 C.3     1  UNL1        0.0351
     18 C         142.9320  143.7389  155.8713 C.3     1  UNL1        0.0204
     19 C         142.2578  144.0157  157.1822 C.3     1  UNL1        0.1174
     20 H         138.3258  148.1488  157.8046 H       1  UNL1        0.1442
     21 H         138.4185  148.6318  156.1718 H       1  UNL1        0.1442
     22 C         144.8335  139.8243  163.9312 C.3     1  UNL1        0.0420
     23 C         143.7908  139.8391  165.0094 C.3     1  UNL1        0.0585
     24 C         143.6257  138.8122  166.0903 C.3     1  UNL1        0.0175
     25 C         142.4630  139.2218  166.9450 C.3     1  UNL1        0.0199
     26 C         141.9095  140.5018  166.3923 C.3     1  UNL1        0.0855
     27 N         142.7302  140.8832  165.1961 N.3     1  UNL1       -0.2971
     28 H         143.1639  141.7935  165.3499 H       1  UNL1        0.1233
     29 C         140.7407  141.2660  166.9398 C.3     1  UNL1        0.1470
     30 O         140.4507  141.2405  168.4113 O.3     1  UNL1       -0.3787
     31 H         141.1090  140.6879  168.8610 H       1  UNL1        0.2108
     32 C         139.8619  142.0558  166.0158 C.ar    1  UNL1        0.0064
     33 C         139.8653  143.5546  166.0761 C.ar    1  UNL1       -0.0019
     34 C         138.9864  144.3444  165.1521 C.ar    1  UNL1        0.0006
     35 C         138.1041  143.6355  164.1677 C.ar    1  UNL1        0.0114
     36 C         138.1007  142.1367  164.1074 C.ar    1  UNL1        0.0574
     37 CL        137.2184  141.4277  163.1231 Cl      1  UNL1       -0.0823
     38 C         138.9796  141.3469  165.0314 C.ar    1  UNL1        0.0095
@<TRIPOS>BOND
     1    11    12    1
     2    12    13   ar
     3    13    14   ar
     4    14    15   ar
     5    15    16   ar
     6    15    17    1
     7    17    18    1
     8    18    19    1
     9    19     7    1
    10     7     8    2
    11     7     9   am
    12     9     1    1
    13     1     2   ar
    14     2     3   ar
    15     3     4   ar
    16     4    22    1
    17    23    22    1
    18    23    24    1
    19    24    25    1
    20    26    25    1
    21    26    29    1
    22    29    30    1
    23    29    32    1
    24    32    33   ar
    25    33    34   ar
    26    34    35   ar
    27    35    36   ar
    28    36    37    1
    29    36    38   ar
    30    26    27    1
    31     4     5   ar
    32     5     6   ar
    33    16    12   ar
    34     6     1   ar
    35    19    14    1
    36    27    23    1
    37    38    32   ar
    38    11    20    1
    39    11    21    1
    40     9    10    1
    41    30    31    1
    42    27    28    1
