@<TRIPOS>MOLECULE
*****
 34 38 0 0 0
SMALL
GASTEIGER

@<TRIPOS>ATOM
      1 C         139.3752  139.5405  166.9781 C.2     1  UNL1        0.2494
      2 O         138.1894  138.8580  167.5928 O.2     1  UNL1       -0.2699
      3 N         139.6904  139.3336  165.5263 N.am    1  UNL1       -0.2660
      4 C         140.8763  140.0161  164.9115 C.3     1  UNL1        0.1160
      5 C         141.1915  139.8091  163.4597 C.3     1  UNL1        0.1197
      6 N         140.3208  138.9197  162.6226 N.am    1  UNL1       -0.2555
      7 C         139.1350  138.2372  163.2373 C.2     1  UNL1        0.2497
      8 O         138.2643  137.3477  162.4001 O.2     1  UNL1       -0.2727
      9 C         138.8197  138.4441  164.6892 C.3     1  UNL1        0.1799
     10 C         141.9873  142.2089  169.4895 C.ar    1  UNL1        0.0685
     11 C         140.8423  142.7927  168.7161 C.ar    1  UNL1        0.0104
     12 C         139.9716  141.9033  167.8790 C.ar    1  UNL1        0.0052
     13 C         140.2459  140.4300  167.8152 C.ar    1  UNL1        0.0536
     14 C         141.3909  139.8461  168.5886 C.ar    1  UNL1        0.0052
     15 C         142.2615  140.7356  169.4257 C.ar    1  UNL1        0.0104
     16 N         143.7286  143.9878  171.1637 N.1     1  UNL1       -0.1908
     17 C         142.8579  143.0983  170.3266 C.1     1  UNL1        0.1004
     18 C         140.6360  138.7128  161.1707 C.ar    1  UNL1        0.0541
     19 C         142.0140  138.2901  160.7552 C.ar    1  UNL1        0.0180
     20 C         142.3291  138.0832  159.3034 C.ar    1  UNL1        0.0382
     21 C         141.2664  138.2990  158.2671 C.ar    1  UNL1        0.1385
     22 C         139.8885  138.7216  158.6825 C.ar    1  UNL1        0.0382
     23 C         139.5733  138.9285  160.1344 C.ar    1  UNL1        0.0180
     24 O         141.5816  138.0920  156.8152 O.3     1  UNL1       -0.4791
     25 C         141.9751  136.7321  156.3196 C.3     1  UNL1        0.1687
     26 C         141.0221  135.9357  155.4784 C.3     1  UNL1        0.0609
     27 C         141.4156  134.5758  154.9827 C.3     1  UNL1        0.0758
     28 N         142.7620  134.0121  155.3283 N.3     1  UNL1       -0.2737
     29 C         143.7150  134.8085  156.1695 C.3     1  UNL1        0.0758
     30 C         143.3215  136.1685  156.6652 C.3     1  UNL1        0.0609
     31 C         143.1555  132.6522  154.8327 C.3     1  UNL1        0.0575
     32 C         143.9902  131.5278  155.3704 C.3     1  UNL1        0.0160
     33 C         143.7119  130.7289  154.1318 C.3     1  UNL1        0.0028
     34 C         142.8772  131.8532  153.5940 C.3     1  UNL1        0.0160
@<TRIPOS>BOND
     1    16    17    3
     2    17    10    1
     3    10    11   ar
     4    11    12   ar
     5    12    13   ar
     6    13     1    1
     7     1     2    2
     8     1     3   am
     9     3     4    1
    10     4     5    1
    11     5     6    1
    12     6    18    1
    13    18    19   ar
    14    19    20   ar
    15    20    21   ar
    16    21    24    1
    17    24    25    1
    18    25    26    1
    19    26    27    1
    20    27    28    1
    21    28    31    1
    22    31    32    1
    23    32    33    1
    24    33    34    1
    25    28    29    1
    26    29    30    1
    27    21    22   ar
    28    22    23   ar
    29     6     7   am
    30     7     8    2
    31     7     9    1
    32    13    14   ar
    33    14    15   ar
    34    15    10   ar
    35     9     3    1
    36    23    18   ar
    37    30    25    1
    38    34    31    1
@<TRIPOS>MOLECULE
*****
 34 38 0 0 0
SMALL
GASTEIGER

@<TRIPOS>ATOM
      1 C         138.0103  141.0153  163.3833 C.2     1  UNL1        0.2494
      2 O         136.8358  141.9301  163.1995 O.2     1  UNL1       -0.2699
      3 N         138.6475  140.3643  162.1916 N.am    1  UNL1       -0.2660
      4 C         139.8220  139.4495  162.3753 C.3     1  UNL1        0.1160
      5 C         140.4592  138.7984  161.1837 C.3     1  UNL1        0.1197
      6 N         139.9219  139.0621  159.8083 N.am    1  UNL1       -0.2555
      7 C         138.7474  139.9769  159.6245 C.2     1  UNL1        0.2497
      8 O         138.2102  140.2406  158.2491 O.2     1  UNL1       -0.2727
      9 C         138.1102  140.6280  160.8162 C.3     1  UNL1        0.1799
     10 C         139.6221  140.2242  167.5095 C.ar    1  UNL1        0.0685
     11 C         140.0471  141.4526  166.7611 C.ar    1  UNL1        0.0104
     12 C         139.5099  141.7163  165.3857 C.ar    1  UNL1        0.0052
     13 C         138.5475  140.7516  164.7587 C.ar    1  UNL1        0.0536
     14 C         138.1225  139.5232  165.5071 C.ar    1  UNL1        0.0052
     15 C         138.6597  139.2595  166.8825 C.ar    1  UNL1        0.0104
     16 N         140.6966  139.6968  170.2604 N.1     1  UNL1       -0.1908
     17 C         140.1593  139.9605  168.8850 C.1     1  UNL1        0.1004
     18 C         140.5591  138.4110  158.6166 C.ar    1  UNL1        0.0541
     19 C         139.7046  137.7430  157.5805 C.ar    1  UNL1        0.0180
     20 C         140.3418  137.0920  156.3889 C.ar    1  UNL1        0.0382
     21 C         141.8337  137.1089  156.2334 C.ar    1  UNL1        0.1385
     22 C         142.6882  137.7769  157.2694 C.ar    1  UNL1        0.0382
     23 C         142.0510  138.4279  158.4610 C.ar    1  UNL1        0.0180
     24 O         142.4709  136.4578  155.0417 O.3     1  UNL1       -0.4791
     25 C         142.9219  135.0293  155.1192 C.3     1  UNL1        0.1687
     26 C         143.8046  134.5816  156.2464 C.3     1  UNL1        0.0609
     27 C         144.2555  133.1531  156.3239 C.3     1  UNL1        0.0758
     28 N         143.8238  132.1723  155.2743 N.3     1  UNL1       -0.2737
     29 C         142.9411  132.6200  154.1472 C.3     1  UNL1        0.0758
     30 C         142.4901  134.0485  154.0697 C.3     1  UNL1        0.0609
     31 C         144.2747  130.7438  155.3519 C.3     1  UNL1        0.0575
     32 C         144.6702  129.7005  154.3494 C.3     1  UNL1        0.0160
     33 C         144.9125  128.7236  155.4616 C.3     1  UNL1        0.0028
     34 C         144.5170  129.7669  156.4641 C.3     1  UNL1        0.0160
@<TRIPOS>BOND
     1    16    17    3
     2    17    10    1
     3    10    11   ar
     4    11    12   ar
     5    12    13   ar
     6    13     1    1
     7     1     2    2
     8     1     3   am
     9     3     4    1
    10     4     5    1
    11     5     6    1
    12     6    18    1
    13    18    19   ar
    14    19    20   ar
    15    20    21   ar
    16    21    24    1
    17    24    25    1
    18    25    26    1
    19    26    27    1
    20    27    28    1
    21    28    31    1
    22    31    32    1
    23    32    33    1
    24    33    34    1
    25    28    29    1
    26    29    30    1
    27    21    22   ar
    28    22    23   ar
    29     6     7   am
    30     7     8    2
    31     7     9    1
    32    13    14   ar
    33    14    15   ar
    34    15    10   ar
    35     9     3    1
    36    23    18   ar
    37    30    25    1
    38    34    31    1
@<TRIPOS>MOLECULE
*****
 34 38 0 0 0
SMALL
GASTEIGER

@<TRIPOS>ATOM
      1 C         138.8472  146.1119  155.6256 C.2     1  UNL1        0.2494
      2 O         137.8484  145.3273  154.8276 O.2     1  UNL1       -0.2699
      3 N         139.6335  145.4398  156.7120 N.am    1  UNL1       -0.2660
      4 C         140.6323  146.2243  157.5100 C.3     1  UNL1        0.1160
      5 C         141.4185  145.5523  158.5964 C.3     1  UNL1        0.1197
      6 N         141.2059  144.0957  158.8847 N.am    1  UNL1       -0.2555
      7 C         140.2072  143.3111  158.0867 C.2     1  UNL1        0.2497
      8 O         139.9946  141.8545  158.3750 O.2     1  UNL1       -0.2727
      9 C         139.4209  143.9832  157.0003 C.3     1  UNL1        0.1799
     10 C         139.4850  150.4817  154.7607 C.ar    1  UNL1        0.0685
     11 C         138.6203  150.0636  155.9128 C.ar    1  UNL1        0.0104
     12 C         138.4077  148.6070  156.2011 C.ar    1  UNL1        0.0052
     13 C         139.0598  147.5685  155.3373 C.ar    1  UNL1        0.0536
     14 C         139.9245  147.9866  154.1852 C.ar    1  UNL1        0.0052
     15 C         140.1371  149.4432  153.8969 C.ar    1  UNL1        0.0104
     16 N         139.9101  153.3949  154.1841 N.1     1  UNL1       -0.1908
     17 C         139.6975  151.9383  154.4724 C.1     1  UNL1        0.1004
     18 C         141.9922  143.4236  159.9711 C.ar    1  UNL1        0.0541
     19 C         141.3717  143.2019  161.3186 C.ar    1  UNL1        0.0180
     20 C         142.1580  142.5299  162.4049 C.ar    1  UNL1        0.0382
     21 C         143.5648  142.0795  162.1437 C.ar    1  UNL1        0.1385
     22 C         144.1853  142.3012  160.7962 C.ar    1  UNL1        0.0382
     23 C         143.3990  142.9733  159.7099 C.ar    1  UNL1        0.0180
     24 O         144.3511  141.4075  163.2301 O.3     1  UNL1       -0.4791
     25 C         143.6981  141.0920  164.5431 C.3     1  UNL1        0.1687
     26 C         143.6448  142.1316  165.6231 C.3     1  UNL1        0.0609
     27 C         142.9918  141.8162  166.9361 C.3     1  UNL1        0.0758
     28 N         142.3921  140.4611  167.1692 N.3     1  UNL1       -0.2737
     29 C         142.4454  139.4216  166.0891 C.3     1  UNL1        0.0758
     30 C         143.0984  139.7371  164.7761 C.3     1  UNL1        0.0609
     31 C         141.7391  140.1457  168.4822 C.3     1  UNL1        0.0575
     32 C         142.1600  139.4293  169.7311 C.3     1  UNL1        0.0160
     33 C         140.8157  139.6996  170.3392 C.3     1  UNL1        0.0028
     34 C         140.3948  140.4159  169.0903 C.3     1  UNL1        0.0160
@<TRIPOS>BOND
     1    16    17    3
     2    17    10    1
     3    10    11   ar
     4    11    12   ar
     5    12    13   ar
     6    13     1    1
     7     1     2    2
     8     1     3   am
     9     3     4    1
    10     4     5    1
    11     5     6    1
    12     6    18    1
    13    18    19   ar
    14    19    20   ar
    15    20    21   ar
    16    21    24    1
    17    24    25    1
    18    25    26    1
    19    26    27    1
    20    27    28    1
    21    28    31    1
    22    31    32    1
    23    32    33    1
    24    33    34    1
    25    28    29    1
    26    29    30    1
    27    21    22   ar
    28    22    23   ar
    29     6     7   am
    30     7     8    2
    31     7     9    1
    32    13    14   ar
    33    14    15   ar
    34    15    10   ar
    35     9     3    1
    36    23    18   ar
    37    30    25    1
    38    34    31    1
@<TRIPOS>MOLECULE
*****
 34 38 0 0 0
SMALL
GASTEIGER

@<TRIPOS>ATOM
      1 C         138.7922  142.3045  164.4441 C.2     1  UNL1        0.2494
      2 O         137.6842  143.3156  164.4442 O.2     1  UNL1       -0.2699
      3 N         139.2195  141.6604  163.1586 N.am    1  UNL1       -0.2660
      4 C         140.3275  140.6493  163.1584 C.3     1  UNL1        0.1160
      5 C         140.7549  140.0052  161.8729 C.3     1  UNL1        0.1197
      6 N         140.0742  140.3722  160.5876 N.am    1  UNL1       -0.2555
      7 C         138.9663  141.3833  160.5877 C.2     1  UNL1        0.2497
      8 O         138.2857  141.7504  159.3024 O.2     1  UNL1       -0.2727
      9 C         138.5389  142.0275  161.8733 C.3     1  UNL1        0.1799
     10 C         140.8340  141.2034  168.3000 C.ar    1  UNL1        0.0685
     11 C         139.9413  140.2120  167.6144 C.ar    1  UNL1        0.0104
     12 C         139.2607  140.5791  166.3291 C.ar    1  UNL1        0.0052
     13 C         139.4728  141.9375  165.7294 C.ar    1  UNL1        0.0536
     14 C         140.3655  142.9289  166.4150 C.ar    1  UNL1        0.0052
     15 C         141.0461  142.5618  167.7003 C.ar    1  UNL1        0.0104
     16 N         142.1953  140.4693  170.8707 N.1     1  UNL1       -0.1908
     17 C         141.5146  140.8364  169.5853 C.1     1  UNL1        0.1004
     18 C         140.5016  139.7281  159.3021 C.ar    1  UNL1        0.0541
     19 C         141.6900  140.2585  158.5562 C.ar    1  UNL1        0.0180
     20 C         142.1174  139.6144  157.2708 C.ar    1  UNL1        0.0382
     21 C         141.3563  138.4398  156.7312 C.ar    1  UNL1        0.1385
     22 C         140.1679  137.9094  157.4770 C.ar    1  UNL1        0.0382
     23 C         139.7406  138.5535  158.7624 C.ar    1  UNL1        0.0180
     24 O         141.7837  137.7957  155.4456 O.3     1  UNL1       -0.4791
     25 C         142.3368  136.4014  155.4530 C.3     1  UNL1        0.1687
     26 C         143.1402  135.9194  156.6244 C.3     1  UNL1        0.0609
     27 C         143.6933  134.5252  156.6317 C.3     1  UNL1        0.0758
     28 N         143.4430  133.6128  155.4676 N.3     1  UNL1       -0.2737
     29 C         142.6395  134.0948  154.2962 C.3     1  UNL1        0.0758
     30 C         142.0864  135.4892  154.2889 C.3     1  UNL1        0.0609
     31 C         143.9960  132.2186  155.4750 C.3     1  UNL1        0.0575
     32 C         143.7295  130.9676  154.6913 C.3     1  UNL1        0.0160
     33 C         144.7782  130.2467  155.4854 C.3     1  UNL1        0.0028
     34 C         145.0447  131.4977  156.2690 C.3     1  UNL1        0.0160
@<TRIPOS>BOND
     1    16    17    3
     2    17    10    1
     3    10    11   ar
     4    11    12   ar
     5    12    13   ar
     6    13     1    1
     7     1     2    2
     8     1     3   am
     9     3     4    1
    10     4     5    1
    11     5     6    1
    12     6    18    1
    13    18    19   ar
    14    19    20   ar
    15    20    21   ar
    16    21    24    1
    17    24    25    1
    18    25    26    1
    19    26    27    1
    20    27    28    1
    21    28    31    1
    22    31    32    1
    23    32    33    1
    24    33    34    1
    25    28    29    1
    26    29    30    1
    27    21    22   ar
    28    22    23   ar
    29     6     7   am
    30     7     8    2
    31     7     9    1
    32    13    14   ar
    33    14    15   ar
    34    15    10   ar
    35     9     3    1
    36    23    18   ar
    37    30    25    1
    38    34    31    1
@<TRIPOS>MOLECULE
*****
 34 38 0 0 0
SMALL
GASTEIGER

@<TRIPOS>ATOM
      1 C         142.7009  139.7980  165.2897 C.2     1  UNL1        0.2494
      2 O         143.6093  138.6173  165.4647 O.2     1  UNL1       -0.2699
      3 N         142.4344  140.3423  163.9176 N.am    1  UNL1       -0.2660
      4 C         141.5259  141.5231  163.7426 C.3     1  UNL1        0.1160
      5 C         141.2594  142.0674  162.3705 C.3     1  UNL1        0.1197
      6 N         141.9013  141.4310  161.1734 N.am    1  UNL1       -0.2555
      7 C         142.8097  140.2503  161.3484 C.2     1  UNL1        0.2497
      8 O         143.4515  139.6138  160.1513 O.2     1  UNL1       -0.2727
      9 C         143.0762  139.7059  162.7206 C.3     1  UNL1        0.1799
     10 C         140.7754  141.7073  168.8809 C.ar    1  UNL1        0.0685
     11 C         140.1048  140.5544  168.1945 C.ar    1  UNL1        0.0104
     12 C         140.7466  139.9180  166.9974 C.ar    1  UNL1        0.0052
     13 C         142.0591  140.4344  166.4868 C.ar    1  UNL1        0.0536
     14 C         142.7296  141.5873  167.1732 C.ar    1  UNL1        0.0052
     15 C         142.0878  142.2237  168.3703 C.ar    1  UNL1        0.0104
     16 N         139.4916  142.9801  171.2751 N.1     1  UNL1       -0.1908
     17 C         140.1335  142.3437  170.0780 C.1     1  UNL1        0.1004
     18 C         141.6347  141.9753  159.8013 C.ar    1  UNL1        0.0541
     19 C         142.6109  142.9212  159.1669 C.ar    1  UNL1        0.0180
     20 C         142.3442  143.4655  157.7949 C.ar    1  UNL1        0.0382
     21 C         141.1014  143.0639  157.0572 C.ar    1  UNL1        0.1385
     22 C         140.1253  142.1181  157.6915 C.ar    1  UNL1        0.0382
     23 C         140.3919  141.5738  159.0635 C.ar    1  UNL1        0.0180
     24 O         140.8349  143.6083  155.6850 O.3     1  UNL1       -0.4791
     25 C         140.4488  145.0472  155.5110 C.3     1  UNL1        0.1687
     26 C         139.6107  145.7300  156.5510 C.3     1  UNL1        0.0609
     27 C         139.2246  147.1689  156.3769 C.3     1  UNL1        0.0758
     28 N         139.6766  147.9252  155.1629 N.3     1  UNL1       -0.2737
     29 C         140.5146  147.2425  154.1229 C.3     1  UNL1        0.0758
     30 C         140.9007  145.8034  154.2970 C.3     1  UNL1        0.0609
     31 C         139.2905  149.3641  154.9888 C.3     1  UNL1        0.0575
     32 C         139.5600  150.4171  153.9550 C.3     1  UNL1        0.0160
     33 C         138.7445  151.3992  154.7427 C.3     1  UNL1        0.0028
     34 C         138.4750  150.3462  155.7765 C.3     1  UNL1        0.0160
@<TRIPOS>BOND
     1    16    17    3
     2    17    10    1
     3    10    11   ar
     4    11    12   ar
     5    12    13   ar
     6    13     1    1
     7     1     2    2
     8     1     3   am
     9     3     4    1
    10     4     5    1
    11     5     6    1
    12     6    18    1
    13    18    19   ar
    14    19    20   ar
    15    20    21   ar
    16    21    24    1
    17    24    25    1
    18    25    26    1
    19    26    27    1
    20    27    28    1
    21    28    31    1
    22    31    32    1
    23    32    33    1
    24    33    34    1
    25    28    29    1
    26    29    30    1
    27    21    22   ar
    28    22    23   ar
    29     6     7   am
    30     7     8    2
    31     7     9    1
    32    13    14   ar
    33    14    15   ar
    34    15    10   ar
    35     9     3    1
    36    23    18   ar
    37    30    25    1
    38    34    31    1
@<TRIPOS>MOLECULE
*****
 34 38 0 0 0
SMALL
GASTEIGER

@<TRIPOS>ATOM
      1 C         141.7412  143.5348  164.0659 C.2     1  UNL1        0.2494
      2 O         141.7699  145.0156  163.8286 O.2     1  UNL1       -0.2699
      3 N         141.7251  142.5889  162.9020 N.am    1  UNL1       -0.2660
      4 C         141.6965  141.1080  163.1393 C.3     1  UNL1        0.1160
      5 C         141.6803  140.1620  161.9753 C.3     1  UNL1        0.1197
      6 N         141.6928  140.6969  160.5740 N.am    1  UNL1       -0.2555
      7 C         141.7214  142.1777  160.3366 C.2     1  UNL1        0.2497
      8 O         141.7339  142.7125  158.9353 O.2     1  UNL1       -0.2727
      9 C         141.7376  143.1237  161.5006 C.3     1  UNL1        0.1799
     10 C         141.7038  141.9302  168.2700 C.ar    1  UNL1        0.0685
     11 C         142.9995  142.0472  167.5234 C.ar    1  UNL1        0.0104
     12 C         143.0120  142.5820  166.1220 C.ar    1  UNL1        0.0052
     13 C         141.7288  142.9999  165.4673 C.ar    1  UNL1        0.0536
     14 C         140.4331  142.8830  166.2139 C.ar    1  UNL1        0.0052
     15 C         140.4206  142.3481  167.6153 C.ar    1  UNL1        0.0104
     16 N         141.6789  140.8605  171.0727 N.1     1  UNL1       -0.1908
     17 C         141.6913  141.3954  169.6713 C.1     1  UNL1        0.1004
     18 C         141.6766  139.7509  159.4100 C.ar    1  UNL1        0.0541
     19 C         140.4240  138.9978  159.0729 C.ar    1  UNL1        0.0180
     20 C         140.4079  138.0518  157.9089 C.ar    1  UNL1        0.0382
     21 C         141.6444  137.8589  157.0820 C.ar    1  UNL1        0.1385
     22 C         142.8971  138.6120  157.4191 C.ar    1  UNL1        0.0382
     23 C         142.9132  139.5580  158.5831 C.ar    1  UNL1        0.0180
     24 O         141.6283  136.9129  155.9180 O.3     1  UNL1       -0.4791
     25 C         141.9770  135.4682  156.1208 C.3     1  UNL1        0.1687
     26 C         141.3178  134.4128  155.2832 C.3     1  UNL1        0.0609
     27 C         141.6666  132.9681  155.4860 C.3     1  UNL1        0.0758
     28 N         142.6745  132.5787  156.5265 N.3     1  UNL1       -0.2737
     29 C         143.3336  133.6341  157.3641 C.3     1  UNL1        0.0758
     30 C         142.9849  135.0789  157.1613 C.3     1  UNL1        0.0609
     31 C         143.0232  131.1340  156.7293 C.3     1  UNL1        0.0575
     32 C         142.5191  129.8336  156.1772 C.3     1  UNL1        0.0160
     33 C         143.5164  129.0909  157.0161 C.3     1  UNL1        0.0028
     34 C         144.0204  130.3913  157.5682 C.3     1  UNL1        0.0160
@<TRIPOS>BOND
     1    16    17    3
     2    17    10    1
     3    10    11   ar
     4    11    12   ar
     5    12    13   ar
     6    13     1    1
     7     1     2    2
     8     1     3   am
     9     3     4    1
    10     4     5    1
    11     5     6    1
    12     6    18    1
    13    18    19   ar
    14    19    20   ar
    15    20    21   ar
    16    21    24    1
    17    24    25    1
    18    25    26    1
    19    26    27    1
    20    27    28    1
    21    28    31    1
    22    31    32    1
    23    32    33    1
    24    33    34    1
    25    28    29    1
    26    29    30    1
    27    21    22   ar
    28    22    23   ar
    29     6     7   am
    30     7     8    2
    31     7     9    1
    32    13    14   ar
    33    14    15   ar
    34    15    10   ar
    35     9     3    1
    36    23    18   ar
    37    30    25    1
    38    34    31    1
@<TRIPOS>MOLECULE
*****
 34 38 0 0 0
SMALL
GASTEIGER

@<TRIPOS>ATOM
      1 C         142.6599  142.5749  166.8382 C.2     1  UNL1        0.2494
      2 O         143.9937  142.8562  167.4641 O.2     1  UNL1       -0.2699
      3 N         142.4092  142.9484  165.4073 N.am    1  UNL1       -0.2660
      4 C         141.0753  142.6671  164.7814 C.3     1  UNL1        0.1160
      5 C         140.8246  143.0406  163.3504 C.3     1  UNL1        0.1197
      6 N         141.9078  143.6953  162.5453 N.am    1  UNL1       -0.2555
      7 C         143.2416  143.9766  163.1712 C.2     1  UNL1        0.2497
      8 O         144.3248  144.6313  162.3661 O.2     1  UNL1       -0.2727
      9 C         143.4924  143.6031  164.6022 C.3     1  UNL1        0.1799
     10 C         139.4105  140.6108  169.2535 C.ar    1  UNL1        0.0685
     11 C         140.1140  139.8402  168.1759 C.ar    1  UNL1        0.0104
     12 C         141.1971  140.4949  167.3708 C.ar    1  UNL1        0.0052
     13 C         141.5768  141.9202  167.6433 C.ar    1  UNL1        0.0536
     14 C         140.8733  142.6908  168.7209 C.ar    1  UNL1        0.0052
     15 C         139.7901  142.0361  169.5260 C.ar    1  UNL1        0.0104
     16 N         137.2442  139.3014  170.8636 N.1     1  UNL1       -0.1908
     17 C         138.3273  139.9561  170.0585 C.1     1  UNL1        0.1004
     18 C         141.6570  144.0688  161.1143 C.ar    1  UNL1        0.0541
     19 C         142.4364  143.4046  160.0182 C.ar    1  UNL1        0.0180
     20 C         142.1856  143.7781  158.5873 C.ar    1  UNL1        0.0382
     21 C         141.1555  144.8157  158.2525 C.ar    1  UNL1        0.1385
     22 C         140.3762  145.4799  159.3486 C.ar    1  UNL1        0.0382
     23 C         140.6269  145.1064  160.7795 C.ar    1  UNL1        0.0180
     24 O         140.9048  145.1892  156.8215 O.3     1  UNL1       -0.4791
     25 C         139.7625  144.5683  156.0734 C.3     1  UNL1        0.1687
     26 C         139.7498  143.0907  155.8155 C.3     1  UNL1        0.0609
     27 C         138.6075  142.4697  155.0674 C.3     1  UNL1        0.0758
     28 N         137.4779  143.3264  154.5772 N.3     1  UNL1       -0.2737
     29 C         137.4907  144.8040  154.8351 C.3     1  UNL1        0.0758
     30 C         138.6330  145.4249  155.5832 C.3     1  UNL1        0.0609
     31 C         136.3357  142.7055  153.8291 C.3     1  UNL1        0.0575
     32 C         135.2297  141.7549  154.1802 C.3     1  UNL1        0.0160
     33 C         134.7203  141.8273  152.7712 C.3     1  UNL1        0.0028
     34 C         135.8263  142.7779  152.4201 C.3     1  UNL1        0.0160
@<TRIPOS>BOND
     1    16    17    3
     2    17    10    1
     3    10    11   ar
     4    11    12   ar
     5    12    13   ar
     6    13     1    1
     7     1     2    2
     8     1     3   am
     9     3     4    1
    10     4     5    1
    11     5     6    1
    12     6    18    1
    13    18    19   ar
    14    19    20   ar
    15    20    21   ar
    16    21    24    1
    17    24    25    1
    18    25    26    1
    19    26    27    1
    20    27    28    1
    21    28    31    1
    22    31    32    1
    23    32    33    1
    24    33    34    1
    25    28    29    1
    26    29    30    1
    27    21    22   ar
    28    22    23   ar
    29     6     7   am
    30     7     8    2
    31     7     9    1
    32    13    14   ar
    33    14    15   ar
    34    15    10   ar
    35     9     3    1
    36    23    18   ar
    37    30    25    1
    38    34    31    1
@<TRIPOS>MOLECULE
*****
 34 38 0 0 0
SMALL
GASTEIGER

@<TRIPOS>ATOM
      1 C         142.8653  139.3908  166.7403 C.2     1  UNL1        0.2494
      2 O         143.6456  138.2240  167.2692 O.2     1  UNL1       -0.2699
      3 N         142.8600  139.6846  165.2694 N.am    1  UNL1       -0.2660
      4 C         142.0797  140.8514  164.7404 C.3     1  UNL1        0.1160
      5 C         142.0744  141.1452  163.2695 C.3     1  UNL1        0.1197
      6 N         142.8495  140.2723  162.3275 N.am    1  UNL1       -0.2555
      7 C         143.6298  139.1056  162.8564 C.2     1  UNL1        0.2497
      8 O         144.4049  138.2327  161.9145 O.2     1  UNL1       -0.2727
      9 C         143.6351  138.8117  164.3274 C.3     1  UNL1        0.1799
     10 C         140.5401  142.0095  169.5662 C.ar    1  UNL1        0.0685
     11 C         141.9709  142.3311  169.2512 C.ar    1  UNL1        0.0104
     12 C         142.7460  141.4582  168.3092 C.ar    1  UNL1        0.0052
     13 C         142.0902  140.2637  167.6823 C.ar    1  UNL1        0.0536
     14 C         140.6594  139.9420  167.9973 C.ar    1  UNL1        0.0052
     15 C         139.8844  140.8149  168.9393 C.ar    1  UNL1        0.0104
     16 N         138.9900  143.7553  171.4502 N.1     1  UNL1       -0.1908
     17 C         139.7650  142.8824  170.5082 C.1     1  UNL1        0.1004
     18 C         142.8442  140.5662  160.8565 C.ar    1  UNL1        0.0541
     19 C         143.7218  141.6506  160.3052 C.ar    1  UNL1        0.0180
     20 C         143.7165  141.9444  158.8343 C.ar    1  UNL1        0.0382
     21 C         142.8336  141.1539  157.9148 C.ar    1  UNL1        0.1385
     22 C         141.9560  140.0696  158.4661 C.ar    1  UNL1        0.0382
     23 C         141.9614  139.7757  159.9370 C.ar    1  UNL1        0.0180
     24 O         142.8283  141.4478  156.4438 O.3     1  UNL1       -0.4791
     25 C         144.1101  141.7858  155.7419 C.3     1  UNL1        0.1687
     26 C         145.3009  140.8840  155.8794 C.3     1  UNL1        0.0609
     27 C         146.5827  141.2220  155.1775 C.3     1  UNL1        0.0758
     28 N         146.6738  142.4618  154.3381 N.3     1  UNL1       -0.2737
     29 C         145.4830  143.3636  154.2006 C.3     1  UNL1        0.0758
     30 C         144.2012  143.0256  154.9025 C.3     1  UNL1        0.0609
     31 C         147.9556  142.7998  153.6362 C.3     1  UNL1        0.0575
     32 C         149.1415  142.0158  153.1576 C.3     1  UNL1        0.0160
     33 C         149.7684  143.2778  152.6435 C.3     1  UNL1        0.0028
     34 C         148.5825  144.0619  153.1221 C.3     1  UNL1        0.0160
@<TRIPOS>BOND
     1    16    17    3
     2    17    10    1
     3    10    11   ar
     4    11    12   ar
     5    12    13   ar
     6    13     1    1
     7     1     2    2
     8     1     3   am
     9     3     4    1
    10     4     5    1
    11     5     6    1
    12     6    18    1
    13    18    19   ar
    14    19    20   ar
    15    20    21   ar
    16    21    24    1
    17    24    25    1
    18    25    26    1
    19    26    27    1
    20    27    28    1
    21    28    31    1
    22    31    32    1
    23    32    33    1
    24    33    34    1
    25    28    29    1
    26    29    30    1
    27    21    22   ar
    28    22    23   ar
    29     6     7   am
    30     7     8    2
    31     7     9    1
    32    13    14   ar
    33    14    15   ar
    34    15    10   ar
    35     9     3    1
    36    23    18   ar
    37    30    25    1
    38    34    31    1
@<TRIPOS>MOLECULE
*****
 34 38 0 0 0
SMALL
GASTEIGER

@<TRIPOS>ATOM
      1 C         139.4308  139.6599  166.2011 C.2     1  UNL1        0.2494
      2 O         138.2039  138.9272  166.6568 O.2     1  UNL1       -0.2699
      3 N         139.8785  139.5574  164.7732 N.am    1  UNL1       -0.2660
      4 C         141.1055  140.2901  164.3174 C.3     1  UNL1        0.1160
      5 C         141.5531  140.1877  162.8894 C.3     1  UNL1        0.1197
      6 N         140.7738  139.3526  161.9172 N.am    1  UNL1       -0.2555
      7 C         139.5468  138.6200  162.3729 C.2     1  UNL1        0.2497
      8 O         138.7674  137.7849  161.4006 O.2     1  UNL1       -0.2727
      9 C         139.0991  138.7224  163.8009 C.3     1  UNL1        0.1799
     10 C         141.7689  142.1650  169.1179 C.ar    1  UNL1        0.0685
     11 C         142.0272  140.6907  169.0200 C.ar    1  UNL1        0.0104
     12 C         141.2478  139.8557  168.0478 C.ar    1  UNL1        0.0052
     13 C         140.2102  140.4949  167.1734 C.ar    1  UNL1        0.0536
     14 C         139.9520  141.9693  167.2712 C.ar    1  UNL1        0.0052
     15 C         140.7313  142.8043  168.2434 C.ar    1  UNL1        0.0104
     16 N         143.3276  143.8352  171.0624 N.1     1  UNL1       -0.1908
     17 C         142.5483  143.0001  170.0901 C.1     1  UNL1        0.1004
     18 C         141.2215  139.2502  160.4892 C.ar    1  UNL1        0.0541
     19 C         140.6935  140.2125  159.4668 C.ar    1  UNL1        0.0180
     20 C         141.1412  140.1100  158.0389 C.ar    1  UNL1        0.0382
     21 C         142.1169  139.0453  157.6333 C.ar    1  UNL1        0.1385
     22 C         142.6448  138.0831  158.6557 C.ar    1  UNL1        0.0382
     23 C         142.1971  138.1855  160.0836 C.ar    1  UNL1        0.0180
     24 O         142.5645  138.9429  156.2053 O.3     1  UNL1       -0.4791
     25 C         143.8171  139.6379  155.7603 C.3     1  UNL1        0.1687
     26 C         144.5833  140.4935  156.7251 C.3     1  UNL1        0.0609
     27 C         145.8359  141.1885  156.2802 C.3     1  UNL1        0.0758
     28 N         146.3224  141.0277  154.8703 N.3     1  UNL1       -0.2737
     29 C         145.5562  140.1721  153.9055 C.3     1  UNL1        0.0758
     30 C         144.3036  139.4771  154.3505 C.3     1  UNL1        0.0609
     31 C         147.5750  141.7227  154.4253 C.3     1  UNL1        0.0575
     32 C         147.9416  142.6166  153.2779 C.3     1  UNL1        0.0160
     33 C         149.3464  142.7055  153.7960 C.3     1  UNL1        0.0028
     34 C         148.9798  141.8116  154.9435 C.3     1  UNL1        0.0160
@<TRIPOS>BOND
     1    16    17    3
     2    17    10    1
     3    10    11   ar
     4    11    12   ar
     5    12    13   ar
     6    13     1    1
     7     1     2    2
     8     1     3   am
     9     3     4    1
    10     4     5    1
    11     5     6    1
    12     6    18    1
    13    18    19   ar
    14    19    20   ar
    15    20    21   ar
    16    21    24    1
    17    24    25    1
    18    25    26    1
    19    26    27    1
    20    27    28    1
    21    28    31    1
    22    31    32    1
    23    32    33    1
    24    33    34    1
    25    28    29    1
    26    29    30    1
    27    21    22   ar
    28    22    23   ar
    29     6     7   am
    30     7     8    2
    31     7     9    1
    32    13    14   ar
    33    14    15   ar
    34    15    10   ar
    35     9     3    1
    36    23    18   ar
    37    30    25    1
    38    34    31    1
