@<TRIPOS>MOLECULE
*****
 34 37 0 0 0
SMALL
GASTEIGER

@<TRIPOS>ATOM
      1 N         144.1180  143.2002  166.4965 N.pl3   1  UNL1       -0.2824
      2 H         144.7863  143.8009  166.8986 H       1  UNL1        0.1551
      3 C         141.6613  143.8909  161.8155 C.ar    1  UNL1        0.1517
      4 N         142.1190  143.5024  160.4409 N.ar    1  UNL1       -0.2260
      5 C         143.4609  142.8442  160.5681 C.ar    1  UNL1        0.1248
      6 C         144.2863  142.2998  159.4401 C.3     1  UNL1        0.0722
      7 N         143.8324  142.8259  162.0212 N.ar    1  UNL1       -0.2920
      8 C         145.0398  142.3038  162.7420 C.ar    1  UNL1        0.0824
      9 C         145.1350  142.4285  164.2337 C.ar    1  UNL1        0.0337
     10 C         144.0228  143.0755  165.0047 C.ar    1  UNL1        0.0535
     11 C         142.8154  143.5976  164.2839 C.ar    1  UNL1        0.0339
     12 C         142.7202  143.4728  162.7922 C.ar    1  UNL1        0.0884
     13 C         137.9339  144.4721  163.0482 C.3     1  UNL1        0.1110
     14 N         139.2241  143.7859  162.7097 N.am    1  UNL1       -0.2979
     15 C         140.3711  144.5771  162.1541 C.2     1  UNL1        0.2651
     16 O         140.2278  146.0543  161.9371 O.2     1  UNL1       -0.2684
     17 H         139.3181  142.8163  162.8521 H       1  UNL1        0.1498
     18 C         143.1948  142.4098  167.3757 C.ar    1  UNL1        0.2221
     19 N         143.3175  142.5027  168.8677 N.ar    1  UNL1       -0.2119
     20 C         142.3943  141.7122  169.7469 C.ar    1  UNL1        0.1050
     21 C         141.3485  140.8288  169.1340 C.ar    1  UNL1        0.0596
     22 C         141.2258  140.7358  167.6419 C.ar    1  UNL1        0.1683
     23 N         142.1489  141.5263  166.7627 N.ar    1  UNL1       -0.1944
     24 N         140.1799  139.8524  167.0290 N.ar    1  UNL1       -0.2074
     25 C         140.2518  139.2090  165.6758 C.ar    1  UNL1        0.1405
     26 C         138.9949  138.4162  165.4721 C.ar    1  UNL1        0.1786
     27 C         138.1461  138.5696  166.6994 C.ar    1  UNL1        0.1589
     28 N         138.8786  139.4572  167.6615 N.ar    1  UNL1       -0.1588
     29 O         138.6477  137.6114  164.2549 O.3     1  UNL1       -0.4708
     30 C         138.9488  138.1508  162.8880 C.3     1  UNL1        0.2223
     31 C         140.2394  137.7979  162.2100 C.3     1  UNL1        0.1131
     32 N         141.2373  136.9210  162.9066 N.3     1  UNL1       -0.3180
     33 H         141.6022  137.4060  163.7264 H       1  UNL1        0.1190
     34 H         142.0041  136.7059  162.2695 H       1  UNL1        0.1190
@<TRIPOS>BOND
     1    13    14    1
     2    14    15   am
     3    15    16    2
     4    15     3    1
     5     3     4   ar
     6     4     5   ar
     7     5     6    1
     8     5     7   ar
     9     7     8   ar
    10     8     9   ar
    11     9    10   ar
    12    10     1    1
    13     1    18    1
    14    18    19   ar
    15    19    20   ar
    16    20    21   ar
    17    21    22   ar
    18    22    24    1
    19    24    25   ar
    20    25    26   ar
    21    26    29    1
    22    29    30    1
    23    30    31    1
    24    31    32    1
    25    26    27   ar
    26    27    28   ar
    27    22    23   ar
    28    10    11   ar
    29    11    12   ar
    30    12     3   ar
    31    12     7   ar
    32    23    18   ar
    33    28    24   ar
    34    14    17    1
    35     1     2    1
    36    32    33    1
    37    32    34    1
@<TRIPOS>MOLECULE
*****
 34 37 0 0 0
SMALL
GASTEIGER

@<TRIPOS>ATOM
      1 N         137.3906  140.9497  162.4444 N.pl3   1  UNL1       -0.2824
      2 H         136.4129  141.0491  162.5037 H       1  UNL1        0.1551
      3 C         141.1645  144.5332  161.2868 C.ar    1  UNL1        0.1517
      4 N         141.5562  145.0967  159.9530 N.ar    1  UNL1       -0.2260
      5 C         140.6789  144.4708  158.9097 C.ar    1  UNL1        0.1248
      6 C         140.7270  144.7467  157.4361 C.3     1  UNL1        0.0722
      7 N         139.7450  143.5204  159.5987 N.ar    1  UNL1       -0.2920
      8 C         138.6601  142.6249  159.0781 C.ar    1  UNL1        0.0824
      9 C         137.8753  141.7680  160.0266 C.ar    1  UNL1        0.0337
     10 C         138.1754  141.8066  161.4958 C.ar    1  UNL1        0.0535
     11 C         139.2603  142.7021  162.0164 C.ar    1  UNL1        0.0339
     12 C         140.0451  143.5590  161.0679 C.ar    1  UNL1        0.0884
     13 C         143.8922  145.3606  164.0482 C.3     1  UNL1        0.1110
     14 N         143.2732  145.0113  162.7273 N.am    1  UNL1       -0.2979
     15 C         141.7834  144.8826  162.6077 C.2     1  UNL1        0.2651
     16 O         140.9128  145.1033  163.8091 O.2     1  UNL1       -0.2684
     17 H         143.8447  144.8665  161.9389 H       1  UNL1        0.1498
     18 C         138.0954  139.9413  163.3026 C.ar    1  UNL1        0.2221
     19 N         138.4979  138.6163  162.7261 N.ar    1  UNL1       -0.2119
     20 C         139.2027  137.6079  163.5843 C.ar    1  UNL1        0.1050
     21 C         139.5050  137.9246  165.0190 C.ar    1  UNL1        0.0596
     22 C         139.1025  139.2496  165.5955 C.ar    1  UNL1        0.1683
     23 N         138.3977  140.2580  164.7373 N.ar    1  UNL1       -0.1944
     24 N         139.4048  139.5663  167.0301 N.ar    1  UNL1       -0.2074
     25 C         140.7443  139.9513  167.5847 C.ar    1  UNL1        0.1405
     26 C         140.5880  140.1765  169.0595 C.ar    1  UNL1        0.1786
     27 C         139.1519  139.9306  169.4163 C.ar    1  UNL1        0.1589
     28 N         138.4207  139.5535  168.1621 N.ar    1  UNL1       -0.1588
     29 O         141.6767  140.5772  170.0104 O.3     1  UNL1       -0.4708
     30 C         142.9877  141.0785  169.4813 C.3     1  UNL1        0.2223
     31 C         143.3856  142.5087  169.6959 C.3     1  UNL1        0.1131
     32 N         144.7805  142.8412  170.1361 N.3     1  UNL1       -0.3180
     33 H         144.9360  142.4779  171.0764 H       1  UNL1        0.1190
     34 H         144.9042  143.8537  170.1380 H       1  UNL1        0.1190
@<TRIPOS>BOND
     1    13    14    1
     2    14    15   am
     3    15    16    2
     4    15     3    1
     5     3     4   ar
     6     4     5   ar
     7     5     6    1
     8     5     7   ar
     9     7     8   ar
    10     8     9   ar
    11     9    10   ar
    12    10     1    1
    13     1    18    1
    14    18    19   ar
    15    19    20   ar
    16    20    21   ar
    17    21    22   ar
    18    22    24    1
    19    24    25   ar
    20    25    26   ar
    21    26    29    1
    22    29    30    1
    23    30    31    1
    24    31    32    1
    25    26    27   ar
    26    27    28   ar
    27    22    23   ar
    28    10    11   ar
    29    11    12   ar
    30    12     3   ar
    31    12     7   ar
    32    23    18   ar
    33    28    24   ar
    34    14    17    1
    35     1     2    1
    36    32    33    1
    37    32    34    1
@<TRIPOS>MOLECULE
*****
 34 37 0 0 0
SMALL
GASTEIGER

@<TRIPOS>ATOM
      1 N         140.3915  145.7894  161.2495 N.pl3   1  UNL1       -0.2824
      2 H         140.2244  146.7537  161.1426 H       1  UNL1        0.1551
      3 C         144.0676  142.1949  159.8388 C.ar    1  UNL1        0.1517
      4 N         144.5752  141.8484  158.4704 N.ar    1  UNL1       -0.2260
      5 C         143.8569  142.7128  157.4770 C.ar    1  UNL1        0.1248
      6 C         144.0552  142.6990  155.9903 C.3     1  UNL1        0.0722
      7 N         142.9054  143.5935  158.2314 N.ar    1  UNL1       -0.2920
      8 C         141.9372  144.6456  157.7778 C.ar    1  UNL1        0.0824
      9 C         141.0993  145.3775  158.7838 C.ar    1  UNL1        0.0337
     10 C         141.2295  145.0574  160.2434 C.ar    1  UNL1        0.0535
     11 C         142.1977  144.0053  160.6971 C.ar    1  UNL1        0.0339
     12 C         143.0356  143.2734  159.6910 C.ar    1  UNL1        0.0884
     13 C         145.7307  141.7619  163.4161 C.3     1  UNL1        0.1110
     14 N         145.2846  142.3846  162.1264 N.am    1  UNL1       -0.2979
     15 C         144.5137  141.5722  161.1284 C.2     1  UNL1        0.2651
     16 O         144.1890  140.1372  161.4202 O.2     1  UNL1       -0.2684
     17 H         145.4977  143.3265  161.9349 H       1  UNL1        0.1498
     18 C         139.8082  145.0521  162.4183 C.ar    1  UNL1        0.2221
     19 N         138.3199  144.9365  162.5651 N.ar    1  UNL1       -0.2119
     20 C         137.7366  144.1992  163.7340 C.ar    1  UNL1        0.1050
     21 C         138.6416  143.5776  164.7560 C.ar    1  UNL1        0.0596
     22 C         140.1299  143.6932  164.6092 C.ar    1  UNL1        0.1683
     23 N         140.7132  144.4304  163.4403 N.ar    1  UNL1       -0.1944
     24 N         141.0349  143.0716  165.6311 N.ar    1  UNL1       -0.2074
     25 C         140.6151  142.5194  166.9611 C.ar    1  UNL1        0.1405
     26 C         141.8393  141.9995  167.6546 C.ar    1  UNL1        0.1786
     27 C         143.0159  142.2304  166.7531 C.ar    1  UNL1        0.1589
     28 N         142.5187  142.8929  165.5026 N.ar    1  UNL1       -0.1588
     29 O         141.8800  141.3609  169.0112 O.3     1  UNL1       -0.4708
     30 C         140.9964  140.1873  169.3145 C.3     1  UNL1        0.2223
     31 C         140.1072  140.2103  170.5223 C.3     1  UNL1        0.1131
     32 N         140.6833  140.5213  171.8719 N.3     1  UNL1       -0.3180
     33 H         141.3255  139.7781  172.1469 H       1  UNL1        0.1190
     34 H         139.9295  140.5897  172.5558 H       1  UNL1        0.1190
@<TRIPOS>BOND
     1    13    14    1
     2    14    15   am
     3    15    16    2
     4    15     3    1
     5     3     4   ar
     6     4     5   ar
     7     5     6    1
     8     5     7   ar
     9     7     8   ar
    10     8     9   ar
    11     9    10   ar
    12    10     1    1
    13     1    18    1
    14    18    19   ar
    15    19    20   ar
    16    20    21   ar
    17    21    22   ar
    18    22    24    1
    19    24    25   ar
    20    25    26   ar
    21    26    29    1
    22    29    30    1
    23    30    31    1
    24    31    32    1
    25    26    27   ar
    26    27    28   ar
    27    22    23   ar
    28    10    11   ar
    29    11    12   ar
    30    12     3   ar
    31    12     7   ar
    32    23    18   ar
    33    28    24   ar
    34    14    17    1
    35     1     2    1
    36    32    33    1
    37    32    34    1
@<TRIPOS>MOLECULE
*****
 34 37 0 0 0
SMALL
GASTEIGER

@<TRIPOS>ATOM
      1 N         142.3243  137.4392  162.4216 N.pl3   1  UNL1       -0.2824
      2 H         142.6686  136.5168  162.4243 H       1  UNL1        0.1551
      3 C         144.1408  142.1336  160.6647 C.ar    1  UNL1        0.1517
      4 N         144.3971  142.5813  159.2562 N.ar    1  UNL1       -0.2260
      5 C         144.0481  141.4471  158.3387 C.ar    1  UNL1        0.1248
      6 C         144.1527  141.4594  156.8424 C.3     1  UNL1        0.0722
      7 N         143.5761  140.2985  159.1801 N.ar    1  UNL1       -0.2920
      8 C         143.1016  138.9212  158.8230 C.ar    1  UNL1        0.0824
      9 C         142.6843  137.9681  159.9035 C.ar    1  UNL1        0.0337
     10 C         142.7416  138.3924  161.3411 C.ar    1  UNL1        0.0535
     11 C         143.2162  139.7698  161.6982 C.ar    1  UNL1        0.0339
     12 C         143.6334  140.7228  160.6177 C.ar    1  UNL1        0.0884
     13 C         143.8452  145.0755  163.3121 C.3     1  UNL1        0.1110
     14 N         143.6316  144.2562  162.0739 N.am    1  UNL1       -0.2979
     15 C         144.3544  142.9529  161.9029 C.2     1  UNL1        0.2651
     16 O         145.2908  142.4691  162.9702 O.2     1  UNL1       -0.2684
     17 H         143.0170  144.5738  161.3734 H       1  UNL1        0.1498
     18 C         141.3826  137.8914  163.4980 C.ar    1  UNL1        0.2221
     19 N         139.9222  137.5623  163.4037 N.ar    1  UNL1       -0.2119
     20 C         138.9805  138.0145  164.4802 C.ar    1  UNL1        0.1050
     21 C         139.4992  138.7957  165.6509 C.ar    1  UNL1        0.0596
     22 C         140.9597  139.1248  165.7452 C.ar    1  UNL1        0.1683
     23 N         141.9014  138.6726  164.6688 N.ar    1  UNL1       -0.1944
     24 N         141.4784  139.9060  166.9159 N.ar    1  UNL1       -0.2074
     25 C         141.1714  141.3417  167.2236 C.ar    1  UNL1        0.1405
     26 C         141.8984  141.7117  168.4823 C.ar    1  UNL1        0.1786
     27 C         142.6548  140.5047  168.9526 C.ar    1  UNL1        0.1589
     28 N         142.3952  139.3888  167.9844 N.ar    1  UNL1       -0.1588
     29 O         141.8735  143.0532  169.1530 O.3     1  UNL1       -0.4708
     30 C         140.5865  143.5931  169.7027 C.3     1  UNL1        0.2223
     31 C         139.7995  142.7901  170.6956 C.3     1  UNL1        0.1131
     32 N         140.5003  142.1110  171.8348 N.3     1  UNL1       -0.3180
     33 H         141.1118  141.3803  171.4707 H       1  UNL1        0.1190
     34 H         139.8094  141.6959  172.4600 H       1  UNL1        0.1190
@<TRIPOS>BOND
     1    13    14    1
     2    14    15   am
     3    15    16    2
     4    15     3    1
     5     3     4   ar
     6     4     5   ar
     7     5     6    1
     8     5     7   ar
     9     7     8   ar
    10     8     9   ar
    11     9    10   ar
    12    10     1    1
    13     1    18    1
    14    18    19   ar
    15    19    20   ar
    16    20    21   ar
    17    21    22   ar
    18    22    24    1
    19    24    25   ar
    20    25    26   ar
    21    26    29    1
    22    29    30    1
    23    30    31    1
    24    31    32    1
    25    26    27   ar
    26    27    28   ar
    27    22    23   ar
    28    10    11   ar
    29    11    12   ar
    30    12     3   ar
    31    12     7   ar
    32    23    18   ar
    33    28    24   ar
    34    14    17    1
    35     1     2    1
    36    32    33    1
    37    32    34    1
@<TRIPOS>MOLECULE
*****
 34 37 0 0 0
SMALL
GASTEIGER

@<TRIPOS>ATOM
      1 N         138.5288  139.0606  167.2497 N.pl3   1  UNL1       -0.2824
      2 H         137.8541  138.5993  167.7987 H       1  UNL1        0.1551
      3 C         142.9876  141.9834  167.2486 C.ar    1  UNL1        0.1517
      4 N         143.5993  142.7755  168.3659 N.ar    1  UNL1       -0.2260
      5 C         142.7238  142.6246  169.5745 C.ar    1  UNL1        0.1248
      6 C         142.9596  143.2494  170.9176 C.3     1  UNL1        0.0722
      7 N         141.5710  141.7392  169.2042 N.ar    1  UNL1       -0.2920
      8 C         140.3939  141.2427  169.9902 C.ar    1  UNL1        0.0824
      9 C         139.3798  140.3498  169.3387 C.ar    1  UNL1        0.0337
     10 C         139.5429  139.9535  167.9012 C.ar    1  UNL1        0.0535
     11 C         140.7200  140.4500  167.1152 C.ar    1  UNL1        0.0339
     12 C         141.7340  141.3429  167.7667 C.ar    1  UNL1        0.0884
     13 C         144.2794  140.3669  163.8621 C.3     1  UNL1        0.1110
     14 N         143.7335  140.4960  165.2532 N.am    1  UNL1       -0.2979
     15 C         143.5335  141.8543  165.8575 C.2     1  UNL1        0.2651
     16 O         143.8796  143.0835  165.0705 O.2     1  UNL1       -0.2684
     17 H         143.5063  139.6892  165.7697 H       1  UNL1        0.1498
     18 C         138.5425  138.8705  165.7619 C.ar    1  UNL1        0.2221
     19 N         138.5723  137.4871  165.1829 N.ar    1  UNL1       -0.2119
     20 C         138.5861  137.2970  163.6950 C.ar    1  UNL1        0.1050
     21 C         138.5701  138.4902  162.7862 C.ar    1  UNL1        0.0596
     22 C         138.5404  139.8736  163.3653 C.ar    1  UNL1        0.1683
     23 N         138.5266  140.0638  164.8531 N.ar    1  UNL1       -0.1944
     24 N         138.5244  141.0669  162.4566 N.ar    1  UNL1       -0.2074
     25 C         138.7296  142.4938  162.8713 C.ar    1  UNL1        0.1405
     26 C         138.6325  143.3516  161.6447 C.ar    1  UNL1        0.1786
     27 C         138.3672  142.4548  160.4718 C.ar    1  UNL1        0.1589
     28 N         138.3004  141.0428  160.9736 N.ar    1  UNL1       -0.1588
     29 O         138.7754  144.8440  161.5988 O.3     1  UNL1       -0.4708
     30 C         139.8085  145.5249  162.4470 C.3     1  UNL1        0.2223
     31 C         141.2522  145.1361  162.3271 C.3     1  UNL1        0.1131
     32 N         141.8942  145.0435  160.9745 N.3     1  UNL1       -0.3180
     33 H         141.4678  144.2815  160.4473 H       1  UNL1        0.1190
     34 H         142.8924  144.8647  161.0835 H       1  UNL1        0.1190
@<TRIPOS>BOND
     1    13    14    1
     2    14    15   am
     3    15    16    2
     4    15     3    1
     5     3     4   ar
     6     4     5   ar
     7     5     6    1
     8     5     7   ar
     9     7     8   ar
    10     8     9   ar
    11     9    10   ar
    12    10     1    1
    13     1    18    1
    14    18    19   ar
    15    19    20   ar
    16    20    21   ar
    17    21    22   ar
    18    22    24    1
    19    24    25   ar
    20    25    26   ar
    21    26    29    1
    22    29    30    1
    23    30    31    1
    24    31    32    1
    25    26    27   ar
    26    27    28   ar
    27    22    23   ar
    28    10    11   ar
    29    11    12   ar
    30    12     3   ar
    31    12     7   ar
    32    23    18   ar
    33    28    24   ar
    34    14    17    1
    35     1     2    1
    36    32    33    1
    37    32    34    1
@<TRIPOS>MOLECULE
*****
 34 37 0 0 0
SMALL
GASTEIGER

@<TRIPOS>ATOM
      1 N         143.5164  140.1944  162.1637 N.pl3   1  UNL1       -0.2824
      2 H         144.4716  139.9588  162.1268 H       1  UNL1        0.1551
      3 C         139.9279  143.9889  161.0922 C.ar    1  UNL1        0.1517
      4 N         139.9539  145.0400  160.0224 N.ar    1  UNL1       -0.2260
      5 C         141.2189  144.8687  159.2349 C.ar    1  UNL1        0.1248
      6 C         141.6521  145.7071  158.0690 C.3     1  UNL1        0.0722
      7 N         141.9749  143.7117  159.8180 N.ar    1  UNL1       -0.2920
      8 C         143.2866  143.0830  159.4520 C.ar    1  UNL1        0.0824
      9 C         143.8005  141.9106  160.2339 C.ar    1  UNL1        0.0337
     10 C         143.0025  141.3669  161.3818 C.ar    1  UNL1        0.0535
     11 C         141.6908  141.9956  161.7478 C.ar    1  UNL1        0.0339
     12 C         141.1769  143.1680  160.9659 C.ar    1  UNL1        0.0884
     13 C         137.9273  144.1374  164.5166 C.3     1  UNL1        0.1110
     14 N         139.0119  144.3332  163.4990 N.am    1  UNL1       -0.2979
     15 C         138.8433  143.7931  162.1097 C.2     1  UNL1        0.2651
     16 O         137.5902  143.0574  161.7381 O.2     1  UNL1       -0.2684
     17 H         139.8344  144.8161  163.7430 H       1  UNL1        0.1498
     18 C         142.5751  139.3811  163.0017 C.ar    1  UNL1        0.2221
     19 N         142.0282  138.0877  162.4745 N.ar    1  UNL1       -0.2119
     20 C         141.0868  137.2743  163.3125 C.ar    1  UNL1        0.1050
     21 C         140.6922  137.7545  164.6777 C.ar    1  UNL1        0.0596
     22 C         141.2391  139.0479  165.2049 C.ar    1  UNL1        0.1683
     23 N         142.1805  139.8612  164.3669 N.ar    1  UNL1       -0.1944
     24 N         140.8446  139.5280  166.5701 N.ar    1  UNL1       -0.2074
     25 C         141.7824  139.9639  167.6566 C.ar    1  UNL1        0.1405
     26 C         140.9604  140.3618  168.8465 C.ar    1  UNL1        0.1786
     27 C         139.5145  140.1719  168.4954 C.ar    1  UNL1        0.1589
     28 N         139.4429  139.6566  167.0885 N.ar    1  UNL1       -0.1588
     29 O         141.4911  140.8619  170.1573 O.3     1  UNL1       -0.4708
     30 C         140.9895  142.1567  170.7247 C.3     1  UNL1        0.2223
     31 C         141.0530  143.4101  169.9033 C.3     1  UNL1        0.1131
     32 N         140.1452  144.5614  170.2203 N.3     1  UNL1       -0.3180
     33 H         139.1779  144.2903  170.0434 H       1  UNL1        0.1190
     34 H         140.3881  145.3581  169.6315 H       1  UNL1        0.1190
@<TRIPOS>BOND
     1    13    14    1
     2    14    15   am
     3    15    16    2
     4    15     3    1
     5     3     4   ar
     6     4     5   ar
     7     5     6    1
     8     5     7   ar
     9     7     8   ar
    10     8     9   ar
    11     9    10   ar
    12    10     1    1
    13     1    18    1
    14    18    19   ar
    15    19    20   ar
    16    20    21   ar
    17    21    22   ar
    18    22    24    1
    19    24    25   ar
    20    25    26   ar
    21    26    29    1
    22    29    30    1
    23    30    31    1
    24    31    32    1
    25    26    27   ar
    26    27    28   ar
    27    22    23   ar
    28    10    11   ar
    29    11    12   ar
    30    12     3   ar
    31    12     7   ar
    32    23    18   ar
    33    28    24   ar
    34    14    17    1
    35     1     2    1
    36    32    33    1
    37    32    34    1
@<TRIPOS>MOLECULE
*****
 34 37 0 0 0
SMALL
GASTEIGER

@<TRIPOS>ATOM
      1 N         138.6022  142.0204  160.2886 N.pl3   1  UNL1       -0.2824
      2 H         137.8259  141.7680  159.7381 H       1  UNL1        0.1551
      3 C         143.8711  142.8135  160.4728 C.ar    1  UNL1        0.1517
      4 N         144.9061  142.5378  159.4227 N.ar    1  UNL1       -0.2260
      5 C         144.2092  141.9663  158.2237 C.ar    1  UNL1        0.1248
      6 C         144.8632  141.5462  156.9408 C.3     1  UNL1        0.0722
      7 N         142.7434  141.8888  158.5327 N.ar    1  UNL1       -0.2920
      8 C         141.5720  141.4091  157.7279 C.ar    1  UNL1        0.0824
      9 C         140.1916  141.4530  158.3132 C.ar    1  UNL1        0.0337
     10 C         139.9827  141.9765  159.7033 C.ar    1  UNL1        0.0535
     11 C         141.1541  142.4562  160.5080 C.ar    1  UNL1        0.0339
     12 C         142.5344  142.4124  159.9227 C.ar    1  UNL1        0.0884
     13 C         143.6931  145.2275  163.6178 C.3     1  UNL1        0.1110
     14 N         143.4366  144.6518  162.2567 N.am    1  UNL1       -0.2979
     15 C         144.1276  143.3892  161.8339 C.2     1  UNL1        0.2651
     16 O         145.0749  142.7025  162.7724 O.2     1  UNL1       -0.2684
     17 H         142.8148  145.1025  161.6407 H       1  UNL1        0.1498
     18 C         138.4045  142.4486  161.7124 C.ar    1  UNL1        0.2221
     19 N         137.9953  143.8582  162.0218 N.ar    1  UNL1       -0.2119
     20 C         137.7976  144.2864  163.4457 C.ar    1  UNL1        0.1050
     21 C         138.0092  143.3052  164.5603 C.ar    1  UNL1        0.0596
     22 C         138.4184  141.8956  164.2510 C.ar    1  UNL1        0.1683
     23 N         138.6161  141.4673  162.8271 N.ar    1  UNL1       -0.1944
     24 N         138.6300  140.9143  165.3655 N.ar    1  UNL1       -0.2074
     25 C         139.5758  141.0795  166.5180 C.ar    1  UNL1        0.1405
     26 C         139.4633  139.8628  167.3881 C.ar    1  UNL1        0.1786
     27 C         138.4478  138.9457  166.7733 C.ar    1  UNL1        0.1589
     28 N         137.9329  139.5956  165.5233 N.ar    1  UNL1       -0.1588
     29 O         140.2312  139.6080  168.6511 O.3     1  UNL1       -0.4708
     30 C         140.5909  140.7508  169.5537 C.3     1  UNL1        0.2223
     31 C         141.9053  140.7507  170.2764 C.3     1  UNL1        0.1131
     32 N         141.9403  140.8913  171.7694 N.3     1  UNL1       -0.3180
     33 H         141.6013  141.8168  172.0318 H       1  UNL1        0.1190
     34 H         142.8982  140.7738  172.0996 H       1  UNL1        0.1190
@<TRIPOS>BOND
     1    13    14    1
     2    14    15   am
     3    15    16    2
     4    15     3    1
     5     3     4   ar
     6     4     5   ar
     7     5     6    1
     8     5     7   ar
     9     7     8   ar
    10     8     9   ar
    11     9    10   ar
    12    10     1    1
    13     1    18    1
    14    18    19   ar
    15    19    20   ar
    16    20    21   ar
    17    21    22   ar
    18    22    24    1
    19    24    25   ar
    20    25    26   ar
    21    26    29    1
    22    29    30    1
    23    30    31    1
    24    31    32    1
    25    26    27   ar
    26    27    28   ar
    27    22    23   ar
    28    10    11   ar
    29    11    12   ar
    30    12     3   ar
    31    12     7   ar
    32    23    18   ar
    33    28    24   ar
    34    14    17    1
    35     1     2    1
    36    32    33    1
    37    32    34    1
@<TRIPOS>MOLECULE
*****
 34 37 0 0 0
SMALL
GASTEIGER

@<TRIPOS>ATOM
      1 N         144.4366  139.1875  161.3850 N.pl3   1  UNL1       -0.2824
      2 H         145.3081  138.7398  161.2893 H       1  UNL1        0.1551
      3 C         140.2168  139.4072  164.6360 C.ar    1  UNL1        0.1517
      4 N         140.1797  139.5356  166.1300 N.ar    1  UNL1       -0.2260
      5 C         141.5943  139.5989  166.6250 C.ar    1  UNL1        0.1248
      6 C         142.0225  139.7287  168.0567 C.3     1  UNL1        0.0722
      7 N         142.5056  139.5095  165.4369 N.ar    1  UNL1       -0.2920
      8 C         144.0006  139.5207  165.3155 C.ar    1  UNL1        0.0824
      9 C         144.6442  139.4134  163.9649 C.ar    1  UNL1        0.0337
     10 C         143.7929  139.2949  162.7357 C.ar    1  UNL1        0.0535
     11 C         142.2978  139.2837  162.8570 C.ar    1  UNL1        0.0339
     12 C         141.6542  139.3910  164.2076 C.ar    1  UNL1        0.0884
     13 C         137.7479  138.1114  161.8118 C.3     1  UNL1        0.1110
     14 N         138.9392  138.2069  162.7183 N.am    1  UNL1       -0.2979
     15 C         139.0255  139.3116  163.7295 C.2     1  UNL1        0.2651
     16 O         137.9206  140.3206  163.8340 O.2     1  UNL1       -0.2684
     17 H         139.6644  137.5447  162.6496 H       1  UNL1        0.1498
     18 C         143.7524  139.7625  160.1803 C.ar    1  UNL1        0.2221
     19 N         143.6435  138.9531  158.9221 N.ar    1  UNL1       -0.2119
     20 C         142.9593  139.5282  157.7174 C.ar    1  UNL1        0.1050
     21 C         142.3841  140.9124  157.7709 C.ar    1  UNL1        0.0596
     22 C         142.4930  141.7218  159.0291 C.ar    1  UNL1        0.1683
     23 N         143.1772  141.1468  160.2338 N.ar    1  UNL1       -0.1944
     24 N         141.9178  143.1060  159.0826 N.ar    1  UNL1       -0.2074
     25 C         140.9363  143.6144  160.0967 C.ar    1  UNL1        0.1405
     26 C         140.6350  145.0476  159.7723 C.ar    1  UNL1        0.1786
     27 C         141.4304  145.4249  158.5577 C.ar    1  UNL1        0.1589
     28 N         142.2232  144.2250  158.1315 N.ar    1  UNL1       -0.1588
     29 O         139.7023  145.9456  160.5294 O.3     1  UNL1       -0.4708
     30 C         139.7788  146.0162  162.0258 C.3     1  UNL1        0.2223
     31 C         138.9965  145.0483  162.8633 C.3     1  UNL1        0.1131
     32 N         137.6465  144.5812  162.4057 N.3     1  UNL1       -0.3180
     33 H         136.9974  145.3680  162.4030 H       1  UNL1        0.1190
     34 H         137.3035  143.8597  163.0398 H       1  UNL1        0.1190
@<TRIPOS>BOND
     1    13    14    1
     2    14    15   am
     3    15    16    2
     4    15     3    1
     5     3     4   ar
     6     4     5   ar
     7     5     6    1
     8     5     7   ar
     9     7     8   ar
    10     8     9   ar
    11     9    10   ar
    12    10     1    1
    13     1    18    1
    14    18    19   ar
    15    19    20   ar
    16    20    21   ar
    17    21    22   ar
    18    22    24    1
    19    24    25   ar
    20    25    26   ar
    21    26    29    1
    22    29    30    1
    23    30    31    1
    24    31    32    1
    25    26    27   ar
    26    27    28   ar
    27    22    23   ar
    28    10    11   ar
    29    11    12   ar
    30    12     3   ar
    31    12     7   ar
    32    23    18   ar
    33    28    24   ar
    34    14    17    1
    35     1     2    1
    36    32    33    1
    37    32    34    1
@<TRIPOS>MOLECULE
*****
 34 37 0 0 0
SMALL
GASTEIGER

@<TRIPOS>ATOM
      1 N         141.6847  145.2842  160.2682 N.pl3   1  UNL1       -0.2824
      2 H         142.5400  145.7700  160.3110 H       1  UNL1        0.1551
      3 C         139.3723  146.2893  155.5707 C.ar    1  UNL1        0.1517
      4 N         138.9899  145.3322  154.4809 N.ar    1  UNL1       -0.2260
      5 C         139.3736  143.9507  154.9216 C.ar    1  UNL1        0.1248
      6 C         139.1730  142.6876  154.1378 C.3     1  UNL1        0.0722
      7 N         139.9931  144.0540  156.2838 N.ar    1  UNL1       -0.2920
      8 C         140.5577  143.0187  157.2108 C.ar    1  UNL1        0.0824
      9 C         141.1216  143.4288  158.5389 C.ar    1  UNL1        0.0337
     10 C         141.1208  144.8742  158.9400 C.ar    1  UNL1        0.0535
     11 C         140.5561  145.9095  158.0131 C.ar    1  UNL1        0.0339
     12 C         139.9922  145.4994  156.6850 C.ar    1  UNL1        0.0884
     13 C         138.3564  149.9521  156.7121 C.3     1  UNL1        0.1110
     14 N         138.5585  148.4659  156.7329 N.am    1  UNL1       -0.2979
     15 C         139.1702  147.7755  155.5499 C.2     1  UNL1        0.2651
     16 O         139.5796  148.5714  154.3463 O.2     1  UNL1       -0.2684
     17 H         138.2898  147.9436  157.5230 H       1  UNL1        0.1498
     18 C         140.9456  144.9542  161.5309 C.ar    1  UNL1        0.2221
     19 N         139.4897  145.2924  161.6581 N.ar    1  UNL1       -0.2119
     20 C         138.7506  144.9624  162.9209 C.ar    1  UNL1        0.1050
     21 C         139.4672  144.2942  164.0566 C.ar    1  UNL1        0.0596
     22 C         140.9231  143.9559  163.9295 C.ar    1  UNL1        0.1683
     23 N         141.6622  144.2860  162.6667 N.ar    1  UNL1       -0.1944
     24 N         141.6397  143.2877  165.0652 N.ar    1  UNL1       -0.2074
     25 C         141.0175  142.8208  166.3477 C.ar    1  UNL1        0.1405
     26 C         142.0976  142.2136  167.1929 C.ar    1  UNL1        0.1786
     27 C         143.3876  142.3052  166.4328 C.ar    1  UNL1        0.1589
     28 N         143.1045  142.9691  165.1178 N.ar    1  UNL1       -0.1588
     29 O         141.9193  141.6191  168.5585 O.3     1  UNL1       -0.4708
     30 C         141.7003  142.5131  169.7429 C.3     1  UNL1        0.2223
     31 C         142.8744  143.0232  170.5248 C.3     1  UNL1        0.1131
     32 N         144.2699  142.7320  170.0581 N.3     1  UNL1       -0.3180
     33 H         144.4467  141.7293  170.1194 H       1  UNL1        0.1190
     34 H         144.9365  143.2314  170.6469 H       1  UNL1        0.1190
@<TRIPOS>BOND
     1    13    14    1
     2    14    15   am
     3    15    16    2
     4    15     3    1
     5     3     4   ar
     6     4     5   ar
     7     5     6    1
     8     5     7   ar
     9     7     8   ar
    10     8     9   ar
    11     9    10   ar
    12    10     1    1
    13     1    18    1
    14    18    19   ar
    15    19    20   ar
    16    20    21   ar
    17    21    22   ar
    18    22    24    1
    19    24    25   ar
    20    25    26   ar
    21    26    29    1
    22    29    30    1
    23    30    31    1
    24    31    32    1
    25    26    27   ar
    26    27    28   ar
    27    22    23   ar
    28    10    11   ar
    29    11    12   ar
    30    12     3   ar
    31    12     7   ar
    32    23    18   ar
    33    28    24   ar
    34    14    17    1
    35     1     2    1
    36    32    33    1
    37    32    34    1
