@<TRIPOS>MOLECULE
*****
 18 19 0 0 0
SMALL
GASTEIGER

@<TRIPOS>ATOM
      1 C         140.7477  141.2080  167.2157 C.3     1  UNL1        0.1051
      2 C         140.0658  140.0049  166.6345 C.ar    1  UNL1       -0.0055
      3 C         138.6901  139.6262  167.0968 C.ar    1  UNL1       -0.0029
      4 C         138.0083  138.4232  166.5156 C.ar    1  UNL1       -0.0003
      5 C         138.7022  137.5989  165.4721 C.ar    1  UNL1       -0.0000
      6 C         140.0780  137.9776  165.0097 C.ar    1  UNL1       -0.0003
      7 C         140.7598  139.1807  165.5909 C.ar    1  UNL1       -0.0029
      8 N         140.6639  141.4791  168.6886 N.3     1  UNL1       -0.2641
      9 C         140.2057  142.8203  169.1795 C.3     1  UNL1        0.1049
     10 C         140.1218  143.0914  170.6524 C.3     1  UNL1        0.1595
     11 O         140.4962  142.0212  171.6345 O.3     1  UNL1       -0.3508
     12 C         140.9544  140.6798  171.1436 C.3     1  UNL1        0.1595
     13 C         141.0382  140.4088  169.6707 C.3     1  UNL1        0.1049
     14 C         140.2254  142.6377  165.7382 C.3     1  UNL1        0.0310
     15 C         141.5134  142.1399  166.3240 C.3     1  UNL1        0.1056
     16 C         142.8014  141.6422  166.9098 C.3     1  UNL1        0.0310
     17 O         142.2792  143.0719  165.4323 O.3     1  UNL1       -0.3851
     18 H         141.6590  143.5763  164.8829 H       1  UNL1        0.2103
@<TRIPOS>BOND
     1    14    15    1
     2    15    16    1
     3    15    17    1
     4    15     1    1
     5     1     2    1
     6     2     3   ar
     7     3     4   ar
     8     4     5   ar
     9     5     6   ar
    10     6     7   ar
    11     1     8    1
    12     8     9    1
    13     9    10    1
    14    10    11    1
    15    11    12    1
    16    12    13    1
    17     7     2   ar
    18    13     8    1
    19    17    18    1
@<TRIPOS>MOLECULE
*****
 18 19 0 0 0
SMALL
GASTEIGER

@<TRIPOS>ATOM
      1 C         140.7446  141.2035  167.2140 C.3     1  UNL1        0.1051
      2 C         140.0630  140.0003  166.6328 C.ar    1  UNL1       -0.0055
      3 C         140.7566  139.1769  165.5883 C.ar    1  UNL1       -0.0029
      4 C         140.0750  137.9737  165.0072 C.ar    1  UNL1       -0.0003
      5 C         138.6999  137.5939  165.4705 C.ar    1  UNL1       -0.0000
      6 C         138.0062  138.4173  166.5149 C.ar    1  UNL1       -0.0003
      7 C         138.6878  139.6205  167.0960 C.ar    1  UNL1       -0.0029
      8 N         140.6615  141.4741  168.6870 N.3     1  UNL1       -0.2641
      9 C         141.0351  140.4031  169.6685 C.3     1  UNL1        0.1049
     10 C         140.9520  140.6736  171.1416 C.3     1  UNL1        0.1595
     11 O         140.4952  142.0151  171.6332 O.3     1  UNL1       -0.3508
     12 C         140.1216  143.0862  170.6517 C.3     1  UNL1        0.1595
     13 C         140.2047  142.8157  169.1786 C.3     1  UNL1        0.1049
     14 C         140.2205  142.6338  165.7376 C.3     1  UNL1        0.0310
     15 C         141.5092  142.1362  166.3221 C.3     1  UNL1        0.1056
     16 C         142.7979  141.6386  166.9066 C.3     1  UNL1        0.0310
     17 O         142.2739  143.0689  165.4302 O.3     1  UNL1       -0.3851
     18 H         141.6531  143.5733  164.8816 H       1  UNL1        0.2103
@<TRIPOS>BOND
     1    14    15    1
     2    15    16    1
     3    15    17    1
     4    15     1    1
     5     1     2    1
     6     2     3   ar
     7     3     4   ar
     8     4     5   ar
     9     5     6   ar
    10     6     7   ar
    11     1     8    1
    12     8     9    1
    13     9    10    1
    14    10    11    1
    15    11    12    1
    16    12    13    1
    17     7     2   ar
    18    13     8    1
    19    17    18    1
@<TRIPOS>MOLECULE
*****
 18 19 0 0 0
SMALL
GASTEIGER

@<TRIPOS>ATOM
      1 C         139.6416  142.9365  164.0815 C.3     1  UNL1        0.1051
      2 C         139.3724  141.8069  165.0311 C.ar    1  UNL1       -0.0055
      3 C         138.4219  140.7127  164.6448 C.ar    1  UNL1       -0.0029
      4 C         138.1527  139.5832  165.5943 C.ar    1  UNL1       -0.0003
      5 C         138.8341  139.5478  166.9302 C.ar    1  UNL1       -0.0000
      6 C         139.7846  140.6420  167.3165 C.ar    1  UNL1       -0.0003
      7 C         140.0537  141.7715  166.3670 C.ar    1  UNL1       -0.0029
      8 N         141.0538  143.3434  163.7813 N.3     1  UNL1       -0.2641
      9 C         142.0445  142.3212  163.3087 C.3     1  UNL1        0.1049
     10 C         143.4567  142.7281  163.0084 C.3     1  UNL1        0.1595
     11 O         143.8781  144.1573  163.1807 O.3     1  UNL1       -0.3508
     12 C         142.8873  145.1797  163.6533 C.3     1  UNL1        0.1595
     13 C         141.4752  144.7727  163.9536 C.3     1  UNL1        0.1049
     14 C         138.1349  144.2702  164.7529 C.3     1  UNL1        0.0310
     15 C         138.4987  143.6591  163.4323 C.3     1  UNL1        0.1056
     16 C         138.8624  143.0479  162.1117 C.3     1  UNL1        0.0310
     17 O         137.3557  144.3817  162.7830 O.3     1  UNL1       -0.3851
     18 H         136.8875  144.9101  163.4482 H       1  UNL1        0.2103
@<TRIPOS>BOND
     1    14    15    1
     2    15    16    1
     3    15    17    1
     4    15     1    1
     5     1     2    1
     6     2     3   ar
     7     3     4   ar
     8     4     5   ar
     9     5     6   ar
    10     6     7   ar
    11     1     8    1
    12     8     9    1
    13     9    10    1
    14    10    11    1
    15    11    12    1
    16    12    13    1
    17     7     2   ar
    18    13     8    1
    19    17    18    1
@<TRIPOS>MOLECULE
*****
 18 19 0 0 0
SMALL
GASTEIGER

@<TRIPOS>ATOM
      1 C         139.4800  140.2977  165.4197 C.3     1  UNL1        0.1051
      2 C         139.3929  141.7471  165.0433 C.ar    1  UNL1       -0.0055
      3 C         140.6435  142.5654  164.9161 C.ar    1  UNL1       -0.0029
      4 C         140.5563  144.0148  164.5397 C.ar    1  UNL1       -0.0003
      5 C         139.2185  144.6458  164.2905 C.ar    1  UNL1       -0.0000
      6 C         137.9678  143.8275  164.4178 C.ar    1  UNL1       -0.0003
      7 C         138.0551  142.3781  164.7942 C.ar    1  UNL1       -0.0029
      8 N         139.9083  139.2828  164.4015 N.3     1  UNL1       -0.2641
      9 C         140.9360  138.2501  164.7582 C.3     1  UNL1        0.1049
     10 C         141.3643  137.2353  163.7400 C.3     1  UNL1        0.1595
     11 O         140.7649  137.2532  162.3651 O.3     1  UNL1       -0.3508
     12 C         139.7371  138.2859  162.0084 C.3     1  UNL1        0.1595
     13 C         139.3088  139.3008  163.0266 C.3     1  UNL1        0.1049
     14 C         137.9511  139.1122  166.2897 C.3     1  UNL1        0.0310
     15 C         139.1389  139.8631  166.8142 C.3     1  UNL1        0.1056
     16 C         140.3267  140.6140  167.3388 C.3     1  UNL1        0.0310
     17 O         138.7978  139.4286  168.2089 O.3     1  UNL1       -0.3851
     18 H         138.0001  138.8771  168.1897 H       1  UNL1        0.2103
@<TRIPOS>BOND
     1    14    15    1
     2    15    16    1
     3    15    17    1
     4    15     1    1
     5     1     2    1
     6     2     3   ar
     7     3     4   ar
     8     4     5   ar
     9     5     6   ar
    10     6     7   ar
    11     1     8    1
    12     8     9    1
    13     9    10    1
    14    10    11    1
    15    11    12    1
    16    12    13    1
    17     7     2   ar
    18    13     8    1
    19    17    18    1
@<TRIPOS>MOLECULE
*****
 18 19 0 0 0
SMALL
GASTEIGER

@<TRIPOS>ATOM
      1 C         139.4771  140.3033  165.4068 C.3     1  UNL1        0.1051
      2 C         139.3848  141.7530  165.0323 C.ar    1  UNL1       -0.0055
      3 C         138.0445  142.3813  164.7904 C.ar    1  UNL1       -0.0029
      4 C         137.9523  143.8308  164.4160 C.ar    1  UNL1       -0.0003
      5 C         139.2004  144.6520  164.2833 C.ar    1  UNL1       -0.0000
      6 C         140.5408  144.0237  164.5252 C.ar    1  UNL1       -0.0003
      7 C         140.6330  142.5742  164.8997 C.ar    1  UNL1       -0.0029
      8 N         139.9021  139.2904  164.3854 N.3     1  UNL1       -0.2641
      9 C         139.2737  139.2896  163.0234 C.3     1  UNL1        0.1049
     10 C         139.6987  138.2767  162.0019 C.3     1  UNL1        0.1595
     11 O         140.7520  137.2646  162.3424 O.3     1  UNL1       -0.3508
     12 C         141.3805  137.2653  163.7045 C.3     1  UNL1        0.1595
     13 C         140.9555  138.2783  164.7260 C.3     1  UNL1        0.1049
     14 C         137.9622  139.1040  166.2824 C.3     1  UNL1        0.0310
     15 C         139.1444  139.8667  166.8027 C.3     1  UNL1        0.1056
     16 C         140.3265  140.6294  167.3231 C.3     1  UNL1        0.0310
     17 O         138.8117  139.4301  168.1987 O.3     1  UNL1       -0.3851
     18 H         138.0192  138.8710  168.1824 H       1  UNL1        0.2103
@<TRIPOS>BOND
     1    14    15    1
     2    15    16    1
     3    15    17    1
     4    15     1    1
     5     1     2    1
     6     2     3   ar
     7     3     4   ar
     8     4     5   ar
     9     5     6   ar
    10     6     7   ar
    11     1     8    1
    12     8     9    1
    13     9    10    1
    14    10    11    1
    15    11    12    1
    16    12    13    1
    17     7     2   ar
    18    13     8    1
    19    17    18    1
@<TRIPOS>MOLECULE
*****
 18 19 0 0 0
SMALL
GASTEIGER

@<TRIPOS>ATOM
      1 C         140.1021  140.4896  166.1222 C.3     1  UNL1        0.1051
      2 C         140.0301  141.0702  167.5035 C.ar    1  UNL1       -0.0055
      3 C         139.3967  140.2864  168.6144 C.ar    1  UNL1       -0.0029
      4 C         139.3247  140.8670  169.9956 C.ar    1  UNL1       -0.0003
      5 C         139.8863  142.2315  170.2658 C.ar    1  UNL1       -0.0000
      6 C         140.5198  143.0153  169.1548 C.ar    1  UNL1       -0.0003
      7 C         140.5917  142.4346  167.7737 C.ar    1  UNL1       -0.0029
      8 N         141.4111  139.9913  165.5854 N.3     1  UNL1       -0.2641
      9 C         142.2761  139.0999  166.4263 C.3     1  UNL1        0.1049
     10 C         143.5851  138.6016  165.8895 C.3     1  UNL1        0.1595
     11 O         144.0291  138.9946  164.5118 O.3     1  UNL1       -0.3508
     12 C         143.1642  139.8861  163.6707 C.3     1  UNL1        0.1595
     13 C         141.8551  140.3844  164.2075 C.3     1  UNL1        0.1049
     14 C         138.8356  138.9195  165.4659 C.3     1  UNL1        0.0310
     15 C         138.8651  140.4074  165.2778 C.3     1  UNL1        0.1056
     16 C         138.8946  141.8952  165.0897 C.3     1  UNL1        0.0310
     17 O         137.6280  140.3252  164.4334 O.3     1  UNL1       -0.3851
     18 H         137.3434  139.4003  164.3661 H       1  UNL1        0.2103
@<TRIPOS>BOND
     1    14    15    1
     2    15    16    1
     3    15    17    1
     4    15     1    1
     5     1     2    1
     6     2     3   ar
     7     3     4   ar
     8     4     5   ar
     9     5     6   ar
    10     6     7   ar
    11     1     8    1
    12     8     9    1
    13     9    10    1
    14    10    11    1
    15    11    12    1
    16    12    13    1
    17     7     2   ar
    18    13     8    1
    19    17    18    1
@<TRIPOS>MOLECULE
*****
 18 19 0 0 0
SMALL
GASTEIGER

@<TRIPOS>ATOM
      1 C         139.5972  140.1284  166.1089 C.3     1  UNL1        0.1051
      2 C         139.2129  141.4751  165.5715 C.ar    1  UNL1       -0.0055
      3 C         139.9968  142.6916  165.9659 C.ar    1  UNL1       -0.0029
      4 C         139.6124  144.0383  165.4285 C.ar    1  UNL1       -0.0003
      5 C         138.4442  144.1684  164.4967 C.ar    1  UNL1       -0.0000
      6 C         137.6603  142.9519  164.1023 C.ar    1  UNL1       -0.0003
      7 C         138.0446  141.6053  164.6397 C.ar    1  UNL1       -0.0029
      8 N         140.2933  140.0202  167.4331 N.3     1  UNL1       -0.2641
      9 C         141.7504  139.6683  167.4880 C.3     1  UNL1        0.1049
     10 C         142.4466  139.5601  168.8122 C.3     1  UNL1        0.1595
     11 O         141.6856  139.8036  170.0817 O.3     1  UNL1       -0.3508
     12 C         140.2284  140.1555  170.0269 C.3     1  UNL1        0.1595
     13 C         139.5323  140.2637  168.7027 C.3     1  UNL1        0.1049
     14 C         140.3978  139.2151  164.3697 C.3     1  UNL1        0.0310
     15 C         139.2854  138.8901  165.3220 C.3     1  UNL1        0.1056
     16 C         138.1730  138.5651  166.2743 C.3     1  UNL1        0.0310
     17 O         138.9735  137.6516  164.5351 O.3     1  UNL1       -0.3851
     18 H         139.5845  137.5828  163.7849 H       1  UNL1        0.2103
@<TRIPOS>BOND
     1    14    15    1
     2    15    16    1
     3    15    17    1
     4    15     1    1
     5     1     2    1
     6     2     3   ar
     7     3     4   ar
     8     4     5   ar
     9     5     6   ar
    10     6     7   ar
    11     1     8    1
    12     8     9    1
    13     9    10    1
    14    10    11    1
    15    11    12    1
    16    12    13    1
    17     7     2   ar
    18    13     8    1
    19    17    18    1
@<TRIPOS>MOLECULE
*****
 18 19 0 0 0
SMALL
GASTEIGER

@<TRIPOS>ATOM
      1 C         139.7466  140.3651  165.9112 C.3     1  UNL1        0.1051
      2 C         139.2770  141.7176  165.4637 C.ar    1  UNL1       -0.0055
      3 C         140.0224  142.9484  165.8874 C.ar    1  UNL1       -0.0029
      4 C         139.5528  144.3008  165.4399 C.ar    1  UNL1       -0.0003
      5 C         138.3379  144.4225  164.5686 C.ar    1  UNL1       -0.0000
      6 C         137.5925  143.1918  164.1449 C.ar    1  UNL1       -0.0003
      7 C         138.0620  141.8393  164.5925 C.ar    1  UNL1       -0.0029
      8 N         141.0041  139.7807  165.3394 N.3     1  UNL1       -0.2641
      9 C         141.2631  139.8566  163.8639 C.3     1  UNL1        0.1049
     10 C         142.5206  139.2723  163.2920 C.3     1  UNL1        0.1595
     11 O         143.5193  138.6119  164.1957 O.3     1  UNL1       -0.3508
     12 C         143.2604  138.5359  165.6712 C.3     1  UNL1        0.1595
     13 C         142.0028  139.1203  166.2431 C.3     1  UNL1        0.1049
     14 C         139.5544  140.4350  168.0226 C.3     1  UNL1        0.0310
     15 C         138.9586  139.5970  166.9305 C.3     1  UNL1        0.1056
     16 C         138.3627  138.7590  165.8384 C.3     1  UNL1        0.0310
     17 O         138.1705  138.8288  167.9498 O.3     1  UNL1       -0.3851
     18 H         138.3639  139.1742  168.8354 H       1  UNL1        0.2103
@<TRIPOS>BOND
     1    14    15    1
     2    15    16    1
     3    15    17    1
     4    15     1    1
     5     1     2    1
     6     2     3   ar
     7     3     4   ar
     8     4     5   ar
     9     5     6   ar
    10     6     7   ar
    11     1     8    1
    12     8     9    1
    13     9    10    1
    14    10    11    1
    15    11    12    1
    16    12    13    1
    17     7     2   ar
    18    13     8    1
    19    17    18    1
@<TRIPOS>MOLECULE
*****
 18 19 0 0 0
SMALL
GASTEIGER

@<TRIPOS>ATOM
      1 C         141.7128  141.6078  166.6175 C.3     1  UNL1        0.1051
      2 C         142.9374  141.5755  165.7518 C.ar    1  UNL1       -0.0055
      3 C         143.4529  140.2669  165.2305 C.ar    1  UNL1       -0.0029
      4 C         144.6775  140.2346  164.3649 C.ar    1  UNL1       -0.0003
      5 C         145.3865  141.5108  164.0205 C.ar    1  UNL1       -0.0000
      6 C         144.8709  142.8194  164.5418 C.ar    1  UNL1       -0.0003
      7 C         143.6464  142.8517  165.4075 C.ar    1  UNL1       -0.0029
      8 N         141.7655  142.2601  167.9673 N.3     1  UNL1       -0.2641
      9 C         140.5882  143.0429  168.4685 C.3     1  UNL1        0.1049
     10 C         140.6410  143.6952  169.8182 C.3     1  UNL1        0.1595
     11 O         141.8710  143.5647  170.6667 O.3     1  UNL1       -0.3508
     12 C         143.0483  142.7819  170.1655 C.3     1  UNL1        0.1595
     13 C         142.9956  142.1296  168.8158 C.3     1  UNL1        0.1049
     14 C         140.2776  142.0944  165.1331 C.3     1  UNL1        0.0310
     15 C         140.4355  140.9880  166.1335 C.3     1  UNL1        0.1056
     16 C         140.5934  139.8815  167.1339 C.3     1  UNL1        0.0310
     17 O         139.1582  140.3680  165.6495 O.3     1  UNL1       -0.3851
     18 H         138.7866  140.9090  164.9352 H       1  UNL1        0.2103
@<TRIPOS>BOND
     1    14    15    1
     2    15    16    1
     3    15    17    1
     4    15     1    1
     5     1     2    1
     6     2     3   ar
     7     3     4   ar
     8     4     5   ar
     9     5     6   ar
    10     6     7   ar
    11     1     8    1
    12     8     9    1
    13     9    10    1
    14    10    11    1
    15    11    12    1
    16    12    13    1
    17     7     2   ar
    18    13     8    1
    19    17    18    1
