@<TRIPOS>MOLECULE
*****
 31 34 0 0 0
SMALL
GASTEIGER

@<TRIPOS>ATOM
      1 C         139.3131  139.0807  160.7874 C.3     1  UNL1        0.0722
      2 N         140.3983  139.5060  165.1339 N.pl3   1  UNL1       -0.3075
      3 C         140.6492  140.6393  164.1839 C.3     1  UNL1        0.0908
      4 C         140.2875  140.4976  162.7350 C.3     1  UNL1        0.0229
      5 C         139.6749  139.2225  162.2362 C.3     1  UNL1        0.0194
      6 C         139.4239  138.0891  163.1863 C.3     1  UNL1        0.0229
      7 C         139.7856  138.2309  164.6351 C.3     1  UNL1        0.0908
      8 C         140.0813  140.2112  169.0265 C.ar    1  UNL1        0.0152
      9 C         141.4833  139.9312  169.4803 C.ar    1  UNL1        0.0012
     10 C         142.5236  139.5095  168.4854 C.ar    1  UNL1        0.0013
     11 C         142.1620  139.3678  167.0366 C.ar    1  UNL1        0.0145
     12 C         140.7600  139.6477  166.5827 C.ar    1  UNL1        0.0479
     13 C         139.7197  140.0694  167.5777 C.ar    1  UNL1        0.0156
     14 O         137.8949  139.7195  170.3409 O.co2   1  UNL1       -0.5446
     15 C         139.0410  140.6329  170.0214 C.2     1  UNL1        0.0729
     16 O         139.1468  141.9680  170.6968 O.co2   1  UNL1       -0.5446
     17 N         140.3392  138.6069  159.8012 N.3     1  UNL1       -0.2724
     18 C         141.7419  138.3284  160.2536 C.3     1  UNL1        0.0758
     19 C         142.7680  137.8546  159.2673 C.3     1  UNL1        0.0609
     20 C         142.3912  137.6592  157.8286 C.3     1  UNL1        0.1687
     21 C         140.9885  137.9376  157.3762 C.3     1  UNL1        0.0609
     22 C         139.9624  138.4115  158.3624 C.3     1  UNL1        0.0758
     23 O         143.4173  137.1854  156.8424 O.3     1  UNL1       -0.4790
     24 C         143.2597  135.8488  156.1799 C.ar    1  UNL1        0.1393
     25 C         142.7400  135.7645  154.7754 C.ar    1  UNL1        0.0378
     26 C         142.5825  134.4279  154.1130 C.ar    1  UNL1        0.0154
     27 C         142.9447  133.1757  154.8551 C.ar    1  UNL1        0.0684
     28 CL        142.7872  131.8391  154.1927 Cl      1  UNL1       -0.0814
     29 C         143.4644  133.2600  156.2597 C.ar    1  UNL1        0.0712
     30 CL        143.8266  132.0078  157.0018 Cl      1  UNL1       -0.0813
     31 C         143.6220  134.5966  156.9221 C.ar    1  UNL1        0.0491
@<TRIPOS>UNITY_ATOM_ATTR
14 1
charge -1
@<TRIPOS>BOND
     1    14    15   ar
     2    15    16   ar
     3    15     8    1
     4     8     9   ar
     5     9    10   ar
     6    10    11   ar
     7    11    12   ar
     8    12     2    1
     9     2     3    1
    10     3     4    1
    11     4     5    1
    12     5     1    1
    13     1    17    1
    14    17    18    1
    15    18    19    1
    16    19    20    1
    17    20    23    1
    18    23    24    1
    19    24    25   ar
    20    25    26   ar
    21    26    27   ar
    22    27    28    1
    23    27    29   ar
    24    29    30    1
    25    29    31   ar
    26    20    21    1
    27    21    22    1
    28     5     6    1
    29     6     7    1
    30    12    13   ar
    31    13     8   ar
    32     7     2    1
    33    22    17    1
    34    31    24   ar
@<TRIPOS>MOLECULE
*****
 31 34 0 0 0
SMALL
GASTEIGER

@<TRIPOS>ATOM
      1 C         140.1802  137.3583  163.6922 C.3     1  UNL1        0.0722
      2 N         141.3153  140.2151  166.9786 N.pl3   1  UNL1       -0.3075
      3 C         139.9141  140.2063  166.4433 C.3     1  UNL1        0.0908
      4 C         139.5357  139.2540  165.3478 C.3     1  UNL1        0.0229
      5 C         140.5585  138.3105  164.7877 C.3     1  UNL1        0.0194
      6 C         141.9597  138.3194  165.3231 C.3     1  UNL1        0.0229
      7 C         142.3381  139.2716  166.4185 C.3     1  UNL1        0.0908
      8 C         141.0139  142.9309  169.8567 C.ar    1  UNL1        0.0152
      9 C         142.4503  143.0718  170.2651 C.ar    1  UNL1        0.0012
     10 C         143.5084  142.2604  169.5780 C.ar    1  UNL1        0.0013
     11 C         143.1301  141.3082  168.4825 C.ar    1  UNL1        0.0145
     12 C         141.6937  141.1673  168.0742 C.ar    1  UNL1        0.0479
     13 C         140.6356  141.9787  168.7613 C.ar    1  UNL1        0.0156
     14 O         138.8757  143.0570  171.3271 O.co2   1  UNL1       -0.5446
     15 C         139.9558  143.7423  170.5438 C.2     1  UNL1        0.0729
     16 O         139.9779  145.2390  170.4477 O.co2   1  UNL1       -0.5446
     17 N         140.4502  137.7163  162.2609 N.3     1  UNL1       -0.2724
     18 C         139.3079  137.9831  161.3261 C.3     1  UNL1        0.0758
     19 C         139.5780  138.3412  159.8947 C.3     1  UNL1        0.0609
     20 C         140.9904  138.4323  159.3981 C.3     1  UNL1        0.1687
     21 C         142.1328  138.1655  160.3329 C.3     1  UNL1        0.0609
     22 C         141.8627  137.8075  161.7642 C.3     1  UNL1        0.0758
     23 O         141.2605  138.7903  157.9667 O.3     1  UNL1       -0.4790
     24 C         141.3971  137.7091  156.9361 C.ar    1  UNL1        0.1393
     25 C         140.3303  137.5231  155.8982 C.ar    1  UNL1        0.0378
     26 C         140.4670  136.4418  154.8676 C.ar    1  UNL1        0.0154
     27 C         141.6704  135.5465  154.8749 C.ar    1  UNL1        0.0684
     28 CL        141.8071  134.4653  153.8442 Cl      1  UNL1       -0.0814
     29 C         142.7374  135.7325  155.9128 C.ar    1  UNL1        0.0712
     30 CL        143.9408  134.8373  155.9200 Cl      1  UNL1       -0.0813
     31 C         142.6007  136.8138  156.9434 C.ar    1  UNL1        0.0491
@<TRIPOS>UNITY_ATOM_ATTR
14 1
charge -1
@<TRIPOS>BOND
     1    14    15   ar
     2    15    16   ar
     3    15     8    1
     4     8     9   ar
     5     9    10   ar
     6    10    11   ar
     7    11    12   ar
     8    12     2    1
     9     2     3    1
    10     3     4    1
    11     4     5    1
    12     5     1    1
    13     1    17    1
    14    17    18    1
    15    18    19    1
    16    19    20    1
    17    20    23    1
    18    23    24    1
    19    24    25   ar
    20    25    26   ar
    21    26    27   ar
    22    27    28    1
    23    27    29   ar
    24    29    30    1
    25    29    31   ar
    26    20    21    1
    27    21    22    1
    28     5     6    1
    29     6     7    1
    30    12    13   ar
    31    13     8   ar
    32     7     2    1
    33    22    17    1
    34    31    24   ar
@<TRIPOS>MOLECULE
*****
 31 34 0 0 0
SMALL
GASTEIGER

@<TRIPOS>ATOM
      1 C         142.9558  144.2694  161.8562 C.3     1  UNL1        0.0722
      2 N         141.2172  142.4574  165.5903 N.pl3   1  UNL1       -0.3075
      3 C         142.6348  142.9477  165.5844 C.3     1  UNL1        0.0908
      4 C         143.2144  143.5518  164.3397 C.3     1  UNL1        0.0229
      5 C         142.3763  143.6654  163.1008 C.3     1  UNL1        0.0194
      6 C         140.9587  143.1751  163.1067 C.3     1  UNL1        0.0229
      7 C         140.3792  142.5711  164.3514 C.3     1  UNL1        0.0908
      8 C         140.0746  142.0213  169.3658 C.ar    1  UNL1        0.0152
      9 C         139.4786  140.6454  169.3244 C.ar    1  UNL1        0.0012
     10 C         139.4621  139.8735  168.0384 C.ar    1  UNL1        0.0013
     11 C         140.0416  140.4775  166.7937 C.ar    1  UNL1        0.0145
     12 C         140.6377  141.8534  166.8350 C.ar    1  UNL1        0.0479
     13 C         140.6541  142.6252  168.1211 C.ar    1  UNL1        0.0156
     14 O         140.5965  142.1473  171.9077 O.co2   1  UNL1       -0.5446
     15 C         140.0911  142.7931  170.6518 C.2     1  UNL1        0.0729
     16 O         139.6022  144.2109  170.6819 O.co2   1  UNL1       -0.5446
     17 N         142.1324  144.3427  160.6046 N.3     1  UNL1       -0.2724
     18 C         142.4119  143.4059  159.4670 C.3     1  UNL1        0.0758
     19 C         141.5883  143.4792  158.2153 C.3     1  UNL1        0.0609
     20 C         140.4854  144.4893  158.1014 C.3     1  UNL1        0.1687
     21 C         140.2059  145.4262  159.2390 C.3     1  UNL1        0.0609
     22 C         141.0293  145.3529  160.4906 C.3     1  UNL1        0.0758
     23 O         139.6619  144.5626  156.8498 O.3     1  UNL1       -0.4790
     24 C         139.7981  145.7399  155.9302 C.ar    1  UNL1        0.1393
     25 C         140.6603  145.6402  154.7069 C.ar    1  UNL1        0.0378
     26 C         140.7965  146.8174  153.7873 C.ar    1  UNL1        0.0154
     27 C         140.0705  148.0943  154.0911 C.ar    1  UNL1        0.0684
     28 CL        140.2067  149.2716  153.1716 Cl      1  UNL1       -0.0814
     29 C         139.2083  148.1941  155.3146 C.ar    1  UNL1        0.0712
     30 CL        138.4823  149.4710  155.6184 Cl      1  UNL1       -0.0813
     31 C         139.0721  147.0168  156.2341 C.ar    1  UNL1        0.0491
@<TRIPOS>UNITY_ATOM_ATTR
14 1
charge -1
@<TRIPOS>BOND
     1    14    15   ar
     2    15    16   ar
     3    15     8    1
     4     8     9   ar
     5     9    10   ar
     6    10    11   ar
     7    11    12   ar
     8    12     2    1
     9     2     3    1
    10     3     4    1
    11     4     5    1
    12     5     1    1
    13     1    17    1
    14    17    18    1
    15    18    19    1
    16    19    20    1
    17    20    23    1
    18    23    24    1
    19    24    25   ar
    20    25    26   ar
    21    26    27   ar
    22    27    28    1
    23    27    29   ar
    24    29    30    1
    25    29    31   ar
    26    20    21    1
    27    21    22    1
    28     5     6    1
    29     6     7    1
    30    12    13   ar
    31    13     8   ar
    32     7     2    1
    33    22    17    1
    34    31    24   ar
@<TRIPOS>MOLECULE
*****
 31 34 0 0 0
SMALL
GASTEIGER

@<TRIPOS>ATOM
      1 C         141.8380  144.8212  161.6266 C.3     1  UNL1        0.0722
      2 N         140.7013  142.7520  165.4575 N.pl3   1  UNL1       -0.3075
      3 C         139.6682  142.9830  164.3949 C.3     1  UNL1        0.0908
      4 C         140.0471  143.6728  163.1178 C.3     1  UNL1        0.0229
      5 C         141.4591  144.1315  162.9036 C.3     1  UNL1        0.0194
      6 C         142.4922  143.9004  163.9663 C.3     1  UNL1        0.0229
      7 C         142.1133  143.2107  165.2433 C.3     1  UNL1        0.0908
      8 C         140.0194  142.1120  169.3144 C.ar    1  UNL1        0.0152
      9 C         139.5647  140.6828  169.2886 C.ar    1  UNL1        0.0012
     10 C         139.4889  139.9434  167.9857 C.ar    1  UNL1        0.0013
     11 C         139.8677  140.6331  166.7087 C.ar    1  UNL1        0.0145
     12 C         140.3224  142.0622  166.7346 C.ar    1  UNL1        0.0479
     13 C         140.3982  142.8017  168.0374 C.ar    1  UNL1        0.0156
     14 O         140.5329  142.1365  171.8611 O.co2   1  UNL1       -0.5446
     15 C         140.0952  142.8515  170.6173 C.2     1  UNL1        0.0729
     16 O         139.7334  144.3059  170.6763 O.co2   1  UNL1       -0.5446
     17 N         142.3319  144.0194  160.4591 N.3     1  UNL1       -0.2724
     18 C         143.5342  143.1355  160.6112 C.3     1  UNL1        0.0758
     19 C         144.0281  142.3336  159.4436 C.3     1  UNL1        0.0609
     20 C         143.3196  142.4157  158.1240 C.3     1  UNL1        0.1687
     21 C         142.1173  143.2996  157.9720 C.3     1  UNL1        0.0609
     22 C         141.6234  144.1014  159.1395 C.3     1  UNL1        0.0758
     23 O         143.8135  141.6139  156.9566 O.3     1  UNL1       -0.4790
     24 C         144.9216  142.1455  156.0966 C.ar    1  UNL1        0.1393
     25 C         144.6061  143.0423  154.9363 C.ar    1  UNL1        0.0378
     26 C         145.7141  143.5739  154.0763 C.ar    1  UNL1        0.0154
     27 C         147.1377  143.2088  154.3766 C.ar    1  UNL1        0.0684
     28 CL        148.2457  143.7404  153.5166 Cl      1  UNL1       -0.0814
     29 C         147.4532  142.3119  155.5369 C.ar    1  UNL1        0.0712
     30 CL        148.8767  141.9468  155.8371 Cl      1  UNL1       -0.0813
     31 C         146.3451  141.7803  156.3969 C.ar    1  UNL1        0.0491
@<TRIPOS>UNITY_ATOM_ATTR
14 1
charge -1
@<TRIPOS>BOND
     1    14    15   ar
     2    15    16   ar
     3    15     8    1
     4     8     9   ar
     5     9    10   ar
     6    10    11   ar
     7    11    12   ar
     8    12     2    1
     9     2     3    1
    10     3     4    1
    11     4     5    1
    12     5     1    1
    13     1    17    1
    14    17    18    1
    15    18    19    1
    16    19    20    1
    17    20    23    1
    18    23    24    1
    19    24    25   ar
    20    25    26   ar
    21    26    27   ar
    22    27    28    1
    23    27    29   ar
    24    29    30    1
    25    29    31   ar
    26    20    21    1
    27    21    22    1
    28     5     6    1
    29     6     7    1
    30    12    13   ar
    31    13     8   ar
    32     7     2    1
    33    22    17    1
    34    31    24   ar
@<TRIPOS>MOLECULE
*****
 31 34 0 0 0
SMALL
GASTEIGER

@<TRIPOS>ATOM
      1 C         138.6050  138.8813  161.8744 C.3     1  UNL1        0.0722
      2 N         139.5174  140.0809  166.1145 N.pl3   1  UNL1       -0.3075
      3 C         139.1532  138.6605  165.7988 C.3     1  UNL1        0.0908
      4 C         138.8491  138.2606  164.3854 C.3     1  UNL1        0.0229
      5 C         138.9091  139.2811  163.2877 C.3     1  UNL1        0.0194
      6 C         139.2733  140.7016  163.6035 C.3     1  UNL1        0.0229
      7 C         139.5774  141.1015  165.0169 C.3     1  UNL1        0.0908
      8 C         141.2772  141.7976  169.2300 C.ar    1  UNL1        0.0152
      9 C         140.4298  141.2807  170.3545 C.ar    1  UNL1        0.0012
     10 C         139.2783  140.3638  170.0658 C.ar    1  UNL1        0.0013
     11 C         138.9742  139.9638  168.6525 C.ar    1  UNL1        0.0145
     12 C         139.8215  140.4808  167.5279 C.ar    1  UNL1        0.0479
     13 C         140.9730  141.3977  167.8167 C.ar    1  UNL1        0.0156
     14 O         143.6617  142.6615  168.6662 O.co2   1  UNL1       -0.5446
     15 C         142.4286  142.7145  169.5187 C.2     1  UNL1        0.0729
     16 O         142.3471  143.6845  170.6599 O.co2   1  UNL1       -0.5446
     17 N         139.7246  138.6425  160.9052 N.3     1  UNL1       -0.2724
     18 C         139.5119  138.8821  159.4398 C.3     1  UNL1        0.0758
     19 C         140.6316  138.6433  158.4705 C.3     1  UNL1        0.0609
     20 C         141.9638  138.1648  158.9666 C.3     1  UNL1        0.1687
     21 C         142.1765  137.9252  160.4320 C.3     1  UNL1        0.0609
     22 C         141.0569  138.1640  161.4013 C.3     1  UNL1        0.0758
     23 O         143.0834  137.9260  157.9974 O.3     1  UNL1       -0.4790
     24 C         142.9453  136.8749  156.9362 C.ar    1  UNL1        0.1393
     25 C         142.8161  137.2751  155.4964 C.ar    1  UNL1        0.0378
     26 C         142.6781  136.2239  154.4353 C.ar    1  UNL1        0.0154
     27 C         142.6693  134.7726  154.8140 C.ar    1  UNL1        0.0684
     28 CL        142.5312  133.7214  153.7528 Cl      1  UNL1       -0.0814
     29 C         142.7985  134.3723  156.2538 C.ar    1  UNL1        0.0712
     30 CL        142.7897  132.9209  156.6325 Cl      1  UNL1       -0.0813
     31 C         142.9365  135.4234  157.3150 C.ar    1  UNL1        0.0491
@<TRIPOS>UNITY_ATOM_ATTR
14 1
charge -1
@<TRIPOS>BOND
     1    14    15   ar
     2    15    16   ar
     3    15     8    1
     4     8     9   ar
     5     9    10   ar
     6    10    11   ar
     7    11    12   ar
     8    12     2    1
     9     2     3    1
    10     3     4    1
    11     4     5    1
    12     5     1    1
    13     1    17    1
    14    17    18    1
    15    18    19    1
    16    19    20    1
    17    20    23    1
    18    23    24    1
    19    24    25   ar
    20    25    26   ar
    21    26    27   ar
    22    27    28    1
    23    27    29   ar
    24    29    30    1
    25    29    31   ar
    26    20    21    1
    27    21    22    1
    28     5     6    1
    29     6     7    1
    30    12    13   ar
    31    13     8   ar
    32     7     2    1
    33    22    17    1
    34    31    24   ar
@<TRIPOS>MOLECULE
*****
 31 34 0 0 0
SMALL
GASTEIGER

@<TRIPOS>ATOM
      1 C         139.4328  137.5828  163.1678 C.3     1  UNL1        0.0722
      2 N         140.7059  139.5740  166.9972 N.pl3   1  UNL1       -0.3075
      3 C         139.2485  139.4530  166.6633 C.3     1  UNL1        0.0908
      4 C         138.8241  138.7893  165.3867 C.3     1  UNL1        0.0229
      5 C         139.8571  138.2465  164.4442 C.3     1  UNL1        0.0194
      6 C         141.3145  138.3675  164.7782 C.3     1  UNL1        0.0229
      7 C         141.7388  139.0312  166.0546 C.3     1  UNL1        0.0908
      8 C         140.8234  142.1146  170.0437 C.ar    1  UNL1        0.0152
      9 C         141.9789  141.5652  170.8265 C.ar    1  UNL1        0.0012
     10 C         142.7102  140.3521  170.3329 C.ar    1  UNL1        0.0013
     11 C         142.2858  139.6884  169.0565 C.ar    1  UNL1        0.0145
     12 C         141.1303  140.2377  168.2737 C.ar    1  UNL1        0.0479
     13 C         140.3991  141.4509  168.7673 C.ar    1  UNL1        0.0156
     14 O         138.8340  143.1706  171.3388 O.co2   1  UNL1       -0.5446
     15 C         140.0922  143.3277  170.5374 C.2     1  UNL1        0.0729
     16 O         140.6191  144.6980  170.2296 O.co2   1  UNL1       -0.5446
     17 N         139.1412  138.4120  161.9523 N.3     1  UNL1       -0.2724
     18 C         140.2447  138.7551  160.9960 C.3     1  UNL1        0.0758
     19 C         139.9530  139.5843  159.7805 C.3     1  UNL1        0.0609
     20 C         138.5579  140.0703  159.5213 C.3     1  UNL1        0.1687
     21 C         137.4543  139.7272  160.4775 C.3     1  UNL1        0.0609
     22 C         137.7459  138.8980  161.6930 C.3     1  UNL1        0.0758
     23 O         138.2663  140.8995  158.3058 O.3     1  UNL1       -0.4790
     24 C         139.0681  142.1373  158.0323 C.ar    1  UNL1        0.1393
     25 C         139.6972  142.3411  156.6859 C.ar    1  UNL1        0.0378
     26 C         140.4990  143.5789  156.4123 C.ar    1  UNL1        0.0154
     27 C         140.6719  144.6128  157.4851 C.ar    1  UNL1        0.0684
     28 CL        141.4738  145.8506  157.2115 Cl      1  UNL1       -0.0814
     29 C         140.0429  144.4091  158.8316 C.ar    1  UNL1        0.0712
     30 CL        140.2157  145.4431  159.9044 Cl      1  UNL1       -0.0813
     31 C         139.2410  143.1713  159.1051 C.ar    1  UNL1        0.0491
@<TRIPOS>UNITY_ATOM_ATTR
14 1
charge -1
@<TRIPOS>BOND
     1    14    15   ar
     2    15    16   ar
     3    15     8    1
     4     8     9   ar
     5     9    10   ar
     6    10    11   ar
     7    11    12   ar
     8    12     2    1
     9     2     3    1
    10     3     4    1
    11     4     5    1
    12     5     1    1
    13     1    17    1
    14    17    18    1
    15    18    19    1
    16    19    20    1
    17    20    23    1
    18    23    24    1
    19    24    25   ar
    20    25    26   ar
    21    26    27   ar
    22    27    28    1
    23    27    29   ar
    24    29    30    1
    25    29    31   ar
    26    20    21    1
    27    21    22    1
    28     5     6    1
    29     6     7    1
    30    12    13   ar
    31    13     8   ar
    32     7     2    1
    33    22    17    1
    34    31    24   ar
@<TRIPOS>MOLECULE
*****
 31 34 0 0 0
SMALL
GASTEIGER

@<TRIPOS>ATOM
      1 C         139.9981  145.6582  161.8032 C.3     1  UNL1        0.0722
      2 N         140.0775  143.1138  165.5139 N.pl3   1  UNL1       -0.3075
      3 C         138.7768  143.6667  165.0114 C.3     1  UNL1        0.0908
      4 C         138.7504  144.5149  163.7744 C.3     1  UNL1        0.0229
      5 C         140.0246  144.8101  163.0401 C.3     1  UNL1        0.0194
      6 C         141.3252  144.2571  163.5426 C.3     1  UNL1        0.0229
      7 C         141.3517  143.4089  164.7795 C.3     1  UNL1        0.0908
      8 C         140.6082  141.9985  169.2854 C.ar    1  UNL1        0.0152
      9 C         140.1569  140.5693  169.2246 C.ar    1  UNL1        0.0012
     10 C         139.6792  139.9883  167.9269 C.ar    1  UNL1        0.0013
     11 C         139.6527  140.8364  166.6900 C.ar    1  UNL1        0.0145
     12 C         140.1040  142.2656  166.7508 C.ar    1  UNL1        0.0479
     13 C         140.5817  142.8466  168.0485 C.ar    1  UNL1        0.0156
     14 O         140.4790  142.1247  171.8772 O.co2   1  UNL1       -0.5446
     15 C         141.0860  142.5796  170.5832 C.2     1  UNL1        0.0729
     16 O         142.1707  143.6156  170.5868 O.co2   1  UNL1       -0.5446
     17 N         139.9515  145.0110  160.4509 N.3     1  UNL1       -0.2724
     18 C         139.5780  143.5637  160.3245 C.3     1  UNL1        0.0758
     19 C         139.5314  142.9165  158.9721 C.3     1  UNL1        0.0609
     20 C         139.8583  143.7164  157.7461 C.3     1  UNL1        0.1687
     21 C         140.2319  145.1637  157.8725 C.3     1  UNL1        0.0609
     22 C         140.2785  145.8109  159.2248 C.3     1  UNL1        0.0758
     23 O         139.8117  143.0692  156.3938 O.3     1  UNL1       -0.4790
     24 C         138.6552  142.1888  156.0231 C.ar    1  UNL1        0.1393
     25 C         137.2565  142.7286  156.0701 C.ar    1  UNL1        0.0378
     26 C         136.0999  141.8482  155.6995 C.ar    1  UNL1        0.0154
     27 C         136.3421  140.4281  155.2818 C.ar    1  UNL1        0.0684
     28 CL        135.1856  139.5477  154.9111 Cl      1  UNL1       -0.0814
     29 C         137.7408  139.8882  155.2348 C.ar    1  UNL1        0.0712
     30 CL        137.9830  138.4681  154.8171 Cl      1  UNL1       -0.0813
     31 C         138.8974  140.7686  155.6054 C.ar    1  UNL1        0.0491
@<TRIPOS>UNITY_ATOM_ATTR
14 1
charge -1
@<TRIPOS>BOND
     1    14    15   ar
     2    15    16   ar
     3    15     8    1
     4     8     9   ar
     5     9    10   ar
     6    10    11   ar
     7    11    12   ar
     8    12     2    1
     9     2     3    1
    10     3     4    1
    11     4     5    1
    12     5     1    1
    13     1    17    1
    14    17    18    1
    15    18    19    1
    16    19    20    1
    17    20    23    1
    18    23    24    1
    19    24    25   ar
    20    25    26   ar
    21    26    27   ar
    22    27    28    1
    23    27    29   ar
    24    29    30    1
    25    29    31   ar
    26    20    21    1
    27    21    22    1
    28     5     6    1
    29     6     7    1
    30    12    13   ar
    31    13     8   ar
    32     7     2    1
    33    22    17    1
    34    31    24   ar
@<TRIPOS>MOLECULE
*****
 31 34 0 0 0
SMALL
GASTEIGER

@<TRIPOS>ATOM
      1 C         143.9276  143.5607  162.2933 C.3     1  UNL1        0.0722
      2 N         141.6404  142.1246  165.8927 N.pl3   1  UNL1       -0.3075
      3 C         140.9379  142.3013  164.5792 C.3     1  UNL1        0.0908
      4 C         141.7003  142.7800  163.3794 C.3     1  UNL1        0.0229
      5 C         143.1652  143.0820  163.4930 C.3     1  UNL1        0.0194
      6 C         143.8677  142.9053  164.8066 C.3     1  UNL1        0.0229
      7 C         143.1053  142.4266  166.0064 C.3     1  UNL1        0.0908
      8 C         140.0801  141.9998  169.5397 C.ar    1  UNL1        0.0152
      9 C         139.3533  140.6886  169.4923 C.ar    1  UNL1        0.0012
     10 C         139.3888  139.8560  168.2451 C.ar    1  UNL1        0.0013
     11 C         140.1512  140.3346  167.0452 C.ar    1  UNL1        0.0145
     12 C         140.8780  141.6459  167.0926 C.ar    1  UNL1        0.0479
     13 C         140.8425  142.4785  168.3398 C.ar    1  UNL1        0.0156
     14 O         140.4319  142.2276  172.1037 O.co2   1  UNL1       -0.5446
     15 C         140.0446  142.8324  170.7869 C.2     1  UNL1        0.0729
     16 O         139.6218  144.2699  170.7172 O.co2   1  UNL1       -0.5446
     17 N         143.6266  142.9930  160.9379 N.3     1  UNL1       -0.2724
     18 C         144.3303  141.7533  160.4709 C.3     1  UNL1        0.0758
     19 C         144.0293  141.1856  159.1155 C.3     1  UNL1        0.0609
     20 C         143.0247  141.8575  158.2271 C.3     1  UNL1        0.1687
     21 C         142.3210  143.0971  158.6941 C.3     1  UNL1        0.0609
     22 C         142.6219  143.6649  160.0495 C.3     1  UNL1        0.0758
     23 O         142.7237  141.2897  156.8718 O.3     1  UNL1       -0.4790
     24 C         142.5043  139.8149  156.7082 C.ar    1  UNL1        0.1393
     25 C         141.2003  139.2002  157.1225 C.ar    1  UNL1        0.0378
     26 C         140.9808  137.7254  156.9590 C.ar    1  UNL1        0.0154
     27 C         142.0654  136.8652  156.3812 C.ar    1  UNL1        0.0684
     28 CL        141.8460  135.3904  156.2177 Cl      1  UNL1       -0.0814
     29 C         143.3695  137.4800  155.9669 C.ar    1  UNL1        0.0712
     30 CL        144.4541  136.6198  155.3892 Cl      1  UNL1       -0.0813
     31 C         143.5889  138.9548  156.1304 C.ar    1  UNL1        0.0491
@<TRIPOS>UNITY_ATOM_ATTR
14 1
charge -1
@<TRIPOS>BOND
     1    14    15   ar
     2    15    16   ar
     3    15     8    1
     4     8     9   ar
     5     9    10   ar
     6    10    11   ar
     7    11    12   ar
     8    12     2    1
     9     2     3    1
    10     3     4    1
    11     4     5    1
    12     5     1    1
    13     1    17    1
    14    17    18    1
    15    18    19    1
    16    19    20    1
    17    20    23    1
    18    23    24    1
    19    24    25   ar
    20    25    26   ar
    21    26    27   ar
    22    27    28    1
    23    27    29   ar
    24    29    30    1
    25    29    31   ar
    26    20    21    1
    27    21    22    1
    28     5     6    1
    29     6     7    1
    30    12    13   ar
    31    13     8   ar
    32     7     2    1
    33    22    17    1
    34    31    24   ar
@<TRIPOS>MOLECULE
*****
 31 34 0 0 0
SMALL
GASTEIGER

@<TRIPOS>ATOM
      1 C         138.7279  137.9304  162.7750 C.3     1  UNL1        0.0722
      2 N         140.4632  139.8137  166.4752 N.pl3   1  UNL1       -0.3075
      3 C         141.3028  138.8968  165.6362 C.3     1  UNL1        0.0908
      4 C         140.7244  138.2689  164.4027 C.3     1  UNL1        0.0229
      5 C         139.3064  138.5582  164.0084 C.3     1  UNL1        0.0194
      6 C         138.4667  139.4752  164.8475 C.3     1  UNL1        0.0229
      7 C         139.0451  140.1030  166.0809 C.3     1  UNL1        0.0908
      8 C         140.8735  142.1626  169.6477 C.ar    1  UNL1        0.0152
      9 C         142.1982  141.6972  170.1755 C.ar    1  UNL1        0.0012
     10 C         142.9446  140.6040  169.4699 C.ar    1  UNL1        0.0013
     11 C         142.3662  139.9762  168.2365 C.ar    1  UNL1        0.0145
     12 C         141.0416  140.4416  167.7087 C.ar    1  UNL1        0.0479
     13 C         140.2952  141.5347  168.4143 C.ar    1  UNL1        0.0156
     14 O         140.6385  144.6651  170.3051 O.co2   1  UNL1       -0.5446
     15 C         140.1272  143.2557  170.3534 C.2     1  UNL1        0.0729
     16 O         138.8695  142.9396  171.1072 O.co2   1  UNL1       -0.5446
     17 N         138.8719  138.6139  161.4475 N.3     1  UNL1       -0.2724
     18 C         140.1223  138.4285  160.6401 C.3     1  UNL1        0.0758
     19 C         140.2662  139.1120  159.3126 C.3     1  UNL1        0.0609
     20 C         139.1597  139.9810  158.7927 C.3     1  UNL1        0.1687
     21 C         137.9092  140.1664  159.6001 C.3     1  UNL1        0.0609
     22 C         137.7653  139.4829  160.9275 C.3     1  UNL1        0.0758
     23 O         139.3036  140.6645  157.4653 O.3     1  UNL1       -0.4790
     24 C         138.1463  140.7023  156.5117 C.ar    1  UNL1        0.1393
     25 C         137.2006  141.8664  156.5258 C.ar    1  UNL1        0.0378
     26 C         136.0433  141.9042  155.5722 C.ar    1  UNL1        0.0154
     27 C         135.8318  140.7778  154.6046 C.ar    1  UNL1        0.0684
     28 CL        134.6745  140.8155  153.6510 Cl      1  UNL1       -0.0814
     29 C         136.7775  139.6135  154.5905 C.ar    1  UNL1        0.0712
     30 CL        136.5660  138.4871  153.6228 Cl      1  UNL1       -0.0813
     31 C         137.9348  139.5757  155.5440 C.ar    1  UNL1        0.0491
@<TRIPOS>UNITY_ATOM_ATTR
14 1
charge -1
@<TRIPOS>BOND
     1    14    15   ar
     2    15    16   ar
     3    15     8    1
     4     8     9   ar
     5     9    10   ar
     6    10    11   ar
     7    11    12   ar
     8    12     2    1
     9     2     3    1
    10     3     4    1
    11     4     5    1
    12     5     1    1
    13     1    17    1
    14    17    18    1
    15    18    19    1
    16    19    20    1
    17    20    23    1
    18    23    24    1
    19    24    25   ar
    20    25    26   ar
    21    26    27   ar
    22    27    28    1
    23    27    29   ar
    24    29    30    1
    25    29    31   ar
    26    20    21    1
    27    21    22    1
    28     5     6    1
    29     6     7    1
    30    12    13   ar
    31    13     8   ar
    32     7     2    1
    33    22    17    1
    34    31    24   ar
