@<TRIPOS>MOLECULE
*****
 34 35 0 0 0
SMALL
GASTEIGER

@<TRIPOS>ATOM
      1 C         138.9652  138.3504  165.4989 C.ar    1  UNL1        0.1515
      2 C         140.1638  139.2255  165.7163 C.ar    1  UNL1        0.0522
      3 C         140.3281  139.9644  167.0113 C.ar    1  UNL1        0.0764
      4 C         139.2937  139.8281  168.0890 C.ar    1  UNL1        0.1691
      5 N         138.0951  138.9529  167.8716 N.ar    1  UNL1       -0.1409
      6 N         137.9308  138.2141  166.5766 N.ar    1  UNL1       -0.1329
      7 C         139.4580  140.5670  169.3840 C.2     1  UNL1        0.2635
      8 N         139.1446  139.8840  170.6822 N.am    1  UNL1       -0.3240
      9 O         139.9356  141.9888  169.3809 O.2     1  UNL1       -0.2686
     10 H         138.8311  138.9507  170.6842 H       1  UNL1        0.1453
     11 H         139.2524  140.3689  171.5321 H       1  UNL1        0.1453
     12 N         138.8009  137.6115  164.2039 N.pl3   1  UNL1       -0.3169
     13 H         138.5388  136.6625  164.2084 H       1  UNL1        0.1482
     14 C         139.0360  138.3184  162.9020 C.3     1  UNL1        0.0859
     15 C         140.3538  138.1777  162.1994 C.3     1  UNL1        0.0849
     16 N         141.2818  137.0569  162.5633 N.3     1  UNL1       -0.3198
     17 H         141.6114  137.1854  163.5200 H       1  UNL1        0.1189
     18 H         142.0787  137.0550  161.9266 H       1  UNL1        0.1189
     19 C         137.9533  139.1661  162.3027 C.3     1  UNL1        0.0209
     20 C         138.3601  141.4777  161.1887 C.3     1  UNL1        0.0001
     21 C         138.0293  140.6609  162.4025 C.3     1  UNL1        0.0017
     22 C         137.7746  141.3389  163.7161 C.3     1  UNL1        0.0001
     23 N         141.5268  140.8396  167.2286 N.pl3   1  UNL1       -0.2965
     24 H         142.0877  140.7166  168.0283 H       1  UNL1        0.1537
     25 C         141.8709  141.9023  166.2275 C.ar    1  UNL1        0.1318
     26 C         143.3043  142.2792  165.9965 C.ar    1  UNL1        0.0344
     27 C         143.6484  143.3419  164.9954 C.ar    1  UNL1        0.0041
     28 C         142.5592  144.0277  164.2252 C.ar    1  UNL1        0.0148
     29 C         141.1258  143.6508  164.4561 C.ar    1  UNL1        0.0597
     30 N         140.7816  142.5881  165.4572 N.ar    1  UNL1       -0.2349
     31 C         140.0365  144.3365  163.6859 C.3     1  UNL1        0.0355
     32 C         139.2820  144.5702  164.9611 C.3     1  UNL1        0.0059
     33 C         140.7910  144.1028  162.4108 C.3     1  UNL1        0.0059
     34 C         138.9472  145.0223  162.9158 C.3     1  UNL1        0.0059
@<TRIPOS>BOND
     1    20    21    1
     2    21    22    1
     3    21    19    1
     4    14    19    1
     5    14    15    1
     6    15    16    1
     7    14    12    1
     8    12     1    1
     9     1     2   ar
    10     2     3   ar
    11     3    23    1
    12    23    25    1
    13    25    26   ar
    14    26    27   ar
    15    27    28   ar
    16    28    29   ar
    17    29    31    1
    18    31    32    1
    19    31    33    1
    20    31    34    1
    21    29    30   ar
    22     3     4   ar
    23     4     7    1
    24     7     8   am
    25     7     9    2
    26     4     5   ar
    27     5     6   ar
    28     6     1   ar
    29    30    25   ar
    30    16    17    1
    31    16    18    1
    32    12    13    1
    33    23    24    1
    34     8    10    1
    35     8    11    1
@<TRIPOS>MOLECULE
*****
 34 35 0 0 0
SMALL
GASTEIGER

@<TRIPOS>ATOM
      1 C         138.5039  139.0911  166.2398 C.ar    1  UNL1        0.1515
      2 C         138.1487  140.2791  165.3959 C.ar    1  UNL1        0.0522
      3 C         138.1515  140.1645  163.9003 C.ar    1  UNL1        0.0764
      4 C         138.5096  138.8618  163.2486 C.ar    1  UNL1        0.1691
      5 N         138.8648  137.6737  164.0926 N.ar    1  UNL1       -0.1409
      6 N         138.8620  137.7884  165.5882 N.ar    1  UNL1       -0.1329
      7 C         138.5125  138.7471  161.7530 C.2     1  UNL1        0.2635
      8 N         139.6475  138.0575  161.0558 N.am    1  UNL1       -0.3240
      9 O         137.3803  139.3221  160.9546 O.2     1  UNL1       -0.2686
     10 H         140.3906  137.6801  161.5799 H       1  UNL1        0.1453
     11 H         139.6493  137.9823  160.0742 H       1  UNL1        0.1453
     12 N         138.5010  139.2057  167.7354 N.pl3   1  UNL1       -0.3169
     13 H         137.8000  138.7581  168.2621 H       1  UNL1        0.1482
     14 C         139.5663  140.0023  168.4286 C.3     1  UNL1        0.0859
     15 C         139.3467  140.4883  169.8307 C.3     1  UNL1        0.0849
     16 N         139.8000  139.6553  170.9928 N.3     1  UNL1       -0.3198
     17 H         139.2575  138.7920  171.0245 H       1  UNL1        0.1189
     18 H         139.6613  140.1759  171.8589 H       1  UNL1        0.1189
     19 C         140.8513  140.3130  167.7198 C.3     1  UNL1        0.0209
     20 C         142.7323  142.0879  167.9672 C.3     1  UNL1        0.0001
     21 C         141.3205  141.7332  167.6057 C.3     1  UNL1        0.0017
     22 C         140.3778  142.7985  167.1300 C.3     1  UNL1        0.0001
     23 N         137.7963  141.3526  163.0563 N.pl3   1  UNL1       -0.2965
     24 H         137.0059  141.3214  162.4701 H       1  UNL1        0.1537
     25 C         138.6451  142.5883  163.1056 C.ar    1  UNL1        0.1318
     26 C         138.0524  143.9200  162.7520 C.ar    1  UNL1        0.0344
     27 C         138.9013  145.1558  162.8013 C.ar    1  UNL1        0.0041
     28 C         140.3430  145.0597  163.2041 C.ar    1  UNL1        0.0148
     29 C         140.9358  143.7279  163.5576 C.ar    1  UNL1        0.0597
     30 N         140.0869  142.4922  163.5084 N.ar    1  UNL1       -0.2349
     31 C         142.3775  143.6318  163.9604 C.3     1  UNL1        0.0355
     32 C         142.2625  142.1372  164.0152 C.3     1  UNL1        0.0059
     33 C         142.4924  145.1264  163.9056 C.3     1  UNL1        0.0059
     34 C         143.8192  143.5356  164.3632 C.3     1  UNL1        0.0059
@<TRIPOS>BOND
     1    20    21    1
     2    21    22    1
     3    21    19    1
     4    14    19    1
     5    14    15    1
     6    15    16    1
     7    14    12    1
     8    12     1    1
     9     1     2   ar
    10     2     3   ar
    11     3    23    1
    12    23    25    1
    13    25    26   ar
    14    26    27   ar
    15    27    28   ar
    16    28    29   ar
    17    29    31    1
    18    31    32    1
    19    31    33    1
    20    31    34    1
    21    29    30   ar
    22     3     4   ar
    23     4     7    1
    24     7     8   am
    25     7     9    2
    26     4     5   ar
    27     5     6   ar
    28     6     1   ar
    29    30    25   ar
    30    16    17    1
    31    16    18    1
    32    12    13    1
    33    23    24    1
    34     8    10    1
    35     8    11    1
@<TRIPOS>MOLECULE
*****
 34 35 0 0 0
SMALL
GASTEIGER

@<TRIPOS>ATOM
      1 C         138.6218  139.4622  167.7335 C.ar    1  UNL1        0.1515
      2 C         140.0218  139.9398  167.4852 C.ar    1  UNL1        0.0522
      3 C         140.8563  140.4420  168.6261 C.ar    1  UNL1        0.0764
      4 C         140.2907  140.4665  170.0151 C.ar    1  UNL1        0.1691
      5 N         138.8907  139.9890  170.2633 N.ar    1  UNL1       -0.1409
      6 N         138.0562  139.4868  169.1225 N.ar    1  UNL1       -0.1329
      7 C         141.1252  140.9687  171.1559 C.2     1  UNL1        0.2635
      8 N         142.4303  140.3041  171.4800 N.am    1  UNL1       -0.3240
      9 O         140.6547  142.1355  171.9726 O.2     1  UNL1       -0.2686
     10 H         142.7391  139.5382  170.9440 H       1  UNL1        0.1453
     11 H         142.9779  140.6337  172.2288 H       1  UNL1        0.1453
     12 N         137.7873  138.9600  166.5926 N.pl3   1  UNL1       -0.3169
     13 H         136.9270  138.5156  166.7704 H       1  UNL1        0.1482
     14 C         138.2636  139.1350  165.1811 C.3     1  UNL1        0.0859
     15 C         138.1965  140.4841  164.5287 C.3     1  UNL1        0.0849
     16 N         137.1228  140.7785  163.5235 N.3     1  UNL1       -0.3198
     17 H         137.2614  140.1962  162.6976 H       1  UNL1        0.1189
     18 H         137.1668  141.7622  163.2572 H       1  UNL1        0.1189
     19 C         138.8069  137.9610  164.4219 C.3     1  UNL1        0.0209
     20 C         138.9757  138.0244  161.8301 C.3     1  UNL1        0.0001
     21 C         139.6153  138.1814  163.1777 C.3     1  UNL1        0.0017
     22 C         141.0633  138.5589  163.2812 C.3     1  UNL1        0.0001
     23 N         142.2565  140.9195  168.3778 N.pl3   1  UNL1       -0.2965
     24 H         142.7209  141.4581  169.0586 H       1  UNL1        0.1537
     25 C         142.9490  140.5766  167.0922 C.ar    1  UNL1        0.1318
     26 C         143.3320  139.1556  166.8024 C.ar    1  UNL1        0.0344
     27 C         144.0245  138.8127  165.5168 C.ar    1  UNL1        0.0041
     28 C         144.3340  139.8909  164.5209 C.ar    1  UNL1        0.0148
     29 C         143.9511  141.3119  164.8107 C.ar    1  UNL1        0.0597
     30 N         143.2586  141.6548  166.0963 N.ar    1  UNL1       -0.2349
     31 C         144.2606  142.3900  163.8148 C.3     1  UNL1        0.0355
     32 C         145.5931  141.7569  163.5435 C.3     1  UNL1        0.0059
     33 C         142.9282  143.0232  164.0862 C.3     1  UNL1        0.0059
     34 C         144.5702  143.4682  162.8189 C.3     1  UNL1        0.0059
@<TRIPOS>BOND
     1    20    21    1
     2    21    22    1
     3    21    19    1
     4    14    19    1
     5    14    15    1
     6    15    16    1
     7    14    12    1
     8    12     1    1
     9     1     2   ar
    10     2     3   ar
    11     3    23    1
    12    23    25    1
    13    25    26   ar
    14    26    27   ar
    15    27    28   ar
    16    28    29   ar
    17    29    31    1
    18    31    32    1
    19    31    33    1
    20    31    34    1
    21    29    30   ar
    22     3     4   ar
    23     4     7    1
    24     7     8   am
    25     7     9    2
    26     4     5   ar
    27     5     6   ar
    28     6     1   ar
    29    30    25   ar
    30    16    17    1
    31    16    18    1
    32    12    13    1
    33    23    24    1
    34     8    10    1
    35     8    11    1
@<TRIPOS>MOLECULE
*****
 34 35 0 0 0
SMALL
GASTEIGER

@<TRIPOS>ATOM
      1 C         138.5684  139.3033  165.7476 C.ar    1  UNL1        0.1515
      2 C         139.6035  140.3426  166.0614 C.ar    1  UNL1        0.0522
      3 C         139.8638  140.7360  167.4853 C.ar    1  UNL1        0.0764
      4 C         139.0889  140.0901  168.5954 C.ar    1  UNL1        0.1691
      5 N         138.0538  139.0509  168.2817 N.ar    1  UNL1       -0.1409
      6 N         137.7936  138.6575  166.8578 N.ar    1  UNL1       -0.1329
      7 C         139.3492  140.4836  170.0193 C.2     1  UNL1        0.2635
      8 N         139.7159  139.4387  171.0311 N.am    1  UNL1       -0.3240
      9 O         139.2429  141.9219  170.4314 O.2     1  UNL1       -0.2686
     10 H         139.7857  138.4946  170.7606 H       1  UNL1        0.1453
     11 H         139.8867  139.6969  171.9656 H       1  UNL1        0.1453
     12 N         138.3081  138.9099  164.3237 N.pl3   1  UNL1       -0.3169
     13 H         137.7599  138.1168  164.1245 H       1  UNL1        0.1482
     14 C         138.8830  139.7249  163.2034 C.3     1  UNL1        0.0859
     15 C         138.2259  141.0109  162.7975 C.3     1  UNL1        0.0849
     16 N         136.7914  141.2654  163.1543 N.3     1  UNL1       -0.3198
     17 H         136.1948  140.6044  162.6566 H       1  UNL1        0.1189
     18 H         136.5389  142.2174  162.8893 H       1  UNL1        0.1189
     19 C         140.1149  139.2540  162.4888 C.3     1  UNL1        0.0209
     20 C         141.8282  137.9313  163.9259 C.3     1  UNL1        0.0001
     21 C         141.4253  139.1898  163.2161 C.3     1  UNL1        0.0017
     22 C         142.3328  140.3840  163.2334 C.3     1  UNL1        0.0001
     23 N         140.8989  141.7753  167.7990 N.pl3   1  UNL1       -0.2965
     24 H         141.0708  142.0324  168.7336 H       1  UNL1        0.1537
     25 C         141.6721  142.4228  166.6886 C.ar    1  UNL1        0.1318
     26 C         143.1594  142.2450  166.6074 C.ar    1  UNL1        0.0344
     27 C         143.9326  142.8925  165.4970 C.ar    1  UNL1        0.0041
     28 C         143.2186  143.7178  164.4679 C.ar    1  UNL1        0.0148
     29 C         141.7314  143.8956  164.5491 C.ar    1  UNL1        0.0597
     30 N         140.9582  143.2481  165.6595 N.ar    1  UNL1       -0.2349
     31 C         141.0174  144.7209  163.5200 C.3     1  UNL1        0.0355
     32 C         139.7778  144.7013  164.3644 C.3     1  UNL1        0.0059
     33 C         142.2570  144.7404  162.6757 C.3     1  UNL1        0.0059
     34 C         140.3033  145.5462  162.4909 C.3     1  UNL1        0.0059
@<TRIPOS>BOND
     1    20    21    1
     2    21    22    1
     3    21    19    1
     4    14    19    1
     5    14    15    1
     6    15    16    1
     7    14    12    1
     8    12     1    1
     9     1     2   ar
    10     2     3   ar
    11     3    23    1
    12    23    25    1
    13    25    26   ar
    14    26    27   ar
    15    27    28   ar
    16    28    29   ar
    17    29    31    1
    18    31    32    1
    19    31    33    1
    20    31    34    1
    21    29    30   ar
    22     3     4   ar
    23     4     7    1
    24     7     8   am
    25     7     9    2
    26     4     5   ar
    27     5     6   ar
    28     6     1   ar
    29    30    25   ar
    30    16    17    1
    31    16    18    1
    32    12    13    1
    33    23    24    1
    34     8    10    1
    35     8    11    1
@<TRIPOS>MOLECULE
*****
 34 35 0 0 0
SMALL
GASTEIGER

@<TRIPOS>ATOM
      1 C         139.2752  139.4035  166.7610 C.ar    1  UNL1        0.1515
      2 C         140.6967  139.2372  166.3120 C.ar    1  UNL1        0.0522
      3 C         140.9969  138.9032  164.8808 C.ar    1  UNL1        0.0764
      4 C         139.8756  138.7355  163.8986 C.ar    1  UNL1        0.1691
      5 N         138.4542  138.9018  164.3477 N.ar    1  UNL1       -0.1409
      6 N         138.1539  139.2358  165.7789 N.ar    1  UNL1       -0.1329
      7 C         140.1759  138.4014  162.4675 C.2     1  UNL1        0.2635
      8 N         139.5465  139.1982  161.3634 N.am    1  UNL1       -0.3240
      9 O         141.1055  137.2706  162.1403 O.2     1  UNL1       -0.2686
     10 H         138.9363  139.9404  161.5781 H       1  UNL1        0.1453
     11 H         139.7435  138.9789  160.4241 H       1  UNL1        0.1453
     12 N         138.9750  139.7376  168.1922 N.pl3   1  UNL1       -0.3169
     13 H         138.1279  139.4439  168.5990 H       1  UNL1        0.1482
     14 C         139.9653  140.5191  169.0036 C.3     1  UNL1        0.0859
     15 C         140.7479  139.8405  170.0886 C.3     1  UNL1        0.0849
     16 N         140.0673  139.4335  171.3618 N.3     1  UNL1       -0.3198
     17 H         139.7632  140.2663  171.8661 H       1  UNL1        0.1189
     18 H         140.7187  138.9041  171.9413 H       1  UNL1        0.1189
     19 C         140.1731  141.9793  168.7301 C.3     1  UNL1        0.0209
     20 C         142.4908  142.2421  167.5859 C.3     1  UNL1        0.0001
     21 C         141.0008  142.4121  167.5563 C.3     1  UNL1        0.0017
     22 C         140.3384  143.0147  166.3530 C.3     1  UNL1        0.0001
     23 N         142.4185  138.7368  164.4317 N.pl3   1  UNL1       -0.2965
     24 H         142.7784  137.8367  164.2603 H       1  UNL1        0.1537
     25 C         143.2915  139.9420  164.2439 C.ar    1  UNL1        0.1318
     26 C         144.7819  139.7855  164.1784 C.ar    1  UNL1        0.0344
     27 C         145.6550  140.9908  163.9906 C.ar    1  UNL1        0.0041
     28 C         145.0377  142.3524  163.8683 C.ar    1  UNL1        0.0148
     29 C         143.5473  142.5088  163.9339 C.ar    1  UNL1        0.0597
     30 N         142.6743  141.3037  164.1216 N.ar    1  UNL1       -0.2349
     31 C         142.9300  143.8704  163.8116 C.3     1  UNL1        0.0355
     32 C         144.0246  144.4430  164.6624 C.3     1  UNL1        0.0059
     33 C         141.8355  143.2977  162.9607 C.3     1  UNL1        0.0059
     34 C         142.3127  145.2320  163.6893 C.3     1  UNL1        0.0059
@<TRIPOS>BOND
     1    20    21    1
     2    21    22    1
     3    21    19    1
     4    14    19    1
     5    14    15    1
     6    15    16    1
     7    14    12    1
     8    12     1    1
     9     1     2   ar
    10     2     3   ar
    11     3    23    1
    12    23    25    1
    13    25    26   ar
    14    26    27   ar
    15    27    28   ar
    16    28    29   ar
    17    29    31    1
    18    31    32    1
    19    31    33    1
    20    31    34    1
    21    29    30   ar
    22     3     4   ar
    23     4     7    1
    24     7     8   am
    25     7     9    2
    26     4     5   ar
    27     5     6   ar
    28     6     1   ar
    29    30    25   ar
    30    16    17    1
    31    16    18    1
    32    12    13    1
    33    23    24    1
    34     8    10    1
    35     8    11    1
@<TRIPOS>MOLECULE
*****
 34 35 0 0 0
SMALL
GASTEIGER

@<TRIPOS>ATOM
      1 C         138.0463  141.7203  163.6950 C.ar    1  UNL1        0.1515
      2 C         139.3457  142.2742  164.1997 C.ar    1  UNL1        0.0522
      3 C         139.9904  143.4325  163.4976 C.ar    1  UNL1        0.0764
      4 C         139.3358  144.0367  162.2909 C.ar    1  UNL1        0.1691
      5 N         138.0364  143.4828  161.7862 N.ar    1  UNL1       -0.1409
      6 N         137.3917  142.3246  162.4883 N.ar    1  UNL1       -0.1329
      7 C         139.9805  145.1950  161.5889 C.2     1  UNL1        0.2635
      8 N         139.2308  146.4837  161.4240 N.am    1  UNL1       -0.3240
      9 O         141.3749  145.0645  161.0516 O.2     1  UNL1       -0.2686
     10 H         138.3156  146.5693  161.7766 H       1  UNL1        0.1453
     11 H         139.6540  147.2438  160.9632 H       1  UNL1        0.1453
     12 N         137.4016  140.5621  164.3970 N.pl3   1  UNL1       -0.3169
     13 H         136.4308  140.5643  164.5609 H       1  UNL1        0.1482
     14 C         138.2359  139.4006  164.8495 C.3     1  UNL1        0.0859
     15 C         138.5202  139.2048  166.3093 C.3     1  UNL1        0.0849
     16 N         137.5615  138.4283  167.1625 N.3     1  UNL1       -0.3198
     17 H         136.6778  138.9335  167.2270 H       1  UNL1        0.1189
     18 H         137.9552  138.3114  168.0962 H       1  UNL1        0.1189
     19 C         138.7860  138.4348  163.8422 C.3     1  UNL1        0.0209
     20 C         140.9627  137.1246  164.3857 C.3     1  UNL1        0.0001
     21 C         140.2694  138.2639  163.6992 C.3     1  UNL1        0.0017
     22 C         141.0595  139.2324  162.8699 C.3     1  UNL1        0.0001
     23 N         141.2899  143.9864  164.0024 N.pl3   1  UNL1       -0.2965
     24 H         141.3339  144.9112  164.3371 H       1  UNL1        0.1537
     25 C         142.5222  143.1313  163.9972 C.ar    1  UNL1        0.1318
     26 C         143.7478  143.5865  163.2619 C.ar    1  UNL1        0.0344
     27 C         144.9802  142.7313  163.2567 C.ar    1  UNL1        0.0041
     28 C         144.9869  141.4209  163.9868 C.ar    1  UNL1        0.0148
     29 C         143.7612  140.9657  164.7220 C.ar    1  UNL1        0.0597
     30 N         142.5289  141.8209  164.7272 N.ar    1  UNL1       -0.2349
     31 C         143.7679  139.6554  165.4520 C.3     1  UNL1        0.0355
     32 C         144.8957  139.1785  164.5857 C.3     1  UNL1        0.0059
     33 C         142.6401  140.1323  166.3183 C.3     1  UNL1        0.0059
     34 C         143.7746  138.3450  166.1820 C.3     1  UNL1        0.0059
@<TRIPOS>BOND
     1    20    21    1
     2    21    22    1
     3    21    19    1
     4    14    19    1
     5    14    15    1
     6    15    16    1
     7    14    12    1
     8    12     1    1
     9     1     2   ar
    10     2     3   ar
    11     3    23    1
    12    23    25    1
    13    25    26   ar
    14    26    27   ar
    15    27    28   ar
    16    28    29   ar
    17    29    31    1
    18    31    32    1
    19    31    33    1
    20    31    34    1
    21    29    30   ar
    22     3     4   ar
    23     4     7    1
    24     7     8   am
    25     7     9    2
    26     4     5   ar
    27     5     6   ar
    28     6     1   ar
    29    30    25   ar
    30    16    17    1
    31    16    18    1
    32    12    13    1
    33    23    24    1
    34     8    10    1
    35     8    11    1
@<TRIPOS>MOLECULE
*****
 34 35 0 0 0
SMALL
GASTEIGER

@<TRIPOS>ATOM
      1 C         138.3026  141.2466  162.2404 C.ar    1  UNL1        0.1515
      2 C         138.9961  141.9970  163.3385 C.ar    1  UNL1        0.0522
      3 C         139.5997  143.3422  163.0627 C.ar    1  UNL1        0.0764
      4 C         139.5099  143.9370  161.6886 C.ar    1  UNL1        0.1691
      5 N         138.8164  143.1867  160.5905 N.ar    1  UNL1       -0.1409
      6 N         138.2128  141.8415  160.8663 N.ar    1  UNL1       -0.1329
      7 C         140.1135  145.2822  161.4128 C.2     1  UNL1        0.2635
      8 N         141.5780  145.3993  161.1101 N.am    1  UNL1       -0.3240
      9 O         139.2527  146.5103  161.4395 O.2     1  UNL1       -0.2686
     10 H         142.1430  144.5932  161.0926 H       1  UNL1        0.1453
     11 H         141.9742  146.2822  160.9291 H       1  UNL1        0.1453
     12 N         137.6990  139.9015  162.5162 N.pl3   1  UNL1       -0.3169
     13 H         136.7279  139.8166  162.6543 H       1  UNL1        0.1482
     14 C         138.5748  138.6855  162.5818 C.3     1  UNL1        0.0859
     15 C         139.2728  138.1965  161.3473 C.3     1  UNL1        0.0849
     16 N         138.9711  138.8218  160.0177 N.3     1  UNL1       -0.3198
     17 H         138.0053  138.6205  159.7587 H       1  UNL1        0.1189
     18 H         139.5994  138.4386  159.3114 H       1  UNL1        0.1189
     19 C         138.7528  137.9586  163.8817 C.3     1  UNL1        0.0209
     20 C         140.5455  139.1994  165.2947 C.3     1  UNL1        0.0001
     21 C         139.1365  138.7161  165.1183 C.3     1  UNL1        0.0017
     22 C         138.1113  138.9903  166.1783 C.3     1  UNL1        0.0001
     23 N         140.2932  144.0925  164.1609 N.pl3   1  UNL1       -0.2965
     24 H         140.2788  145.0769  164.1698 H       1  UNL1        0.1537
     25 C         141.0086  143.3431  165.2456 C.ar    1  UNL1        0.1318
     26 C         142.4101  142.8573  165.0227 C.ar    1  UNL1        0.0344
     27 C         143.1255  142.1078  166.1075 C.ar    1  UNL1        0.0041
     28 C         142.4394  141.8442  167.4150 C.ar    1  UNL1        0.0148
     29 C         141.0378  142.3300  167.6379 C.ar    1  UNL1        0.0597
     30 N         140.3225  143.0794  166.5532 N.ar    1  UNL1       -0.2349
     31 C         140.3517  142.0664  168.9454 C.3     1  UNL1        0.0355
     32 C         140.4205  143.5278  169.2762 C.3     1  UNL1        0.0059
     33 C         140.2829  140.6050  168.6146 C.3     1  UNL1        0.0059
     34 C         139.6655  141.8028  170.2530 C.3     1  UNL1        0.0059
@<TRIPOS>BOND
     1    20    21    1
     2    21    22    1
     3    21    19    1
     4    14    19    1
     5    14    15    1
     6    15    16    1
     7    14    12    1
     8    12     1    1
     9     1     2   ar
    10     2     3   ar
    11     3    23    1
    12    23    25    1
    13    25    26   ar
    14    26    27   ar
    15    27    28   ar
    16    28    29   ar
    17    29    31    1
    18    31    32    1
    19    31    33    1
    20    31    34    1
    21    29    30   ar
    22     3     4   ar
    23     4     7    1
    24     7     8   am
    25     7     9    2
    26     4     5   ar
    27     5     6   ar
    28     6     1   ar
    29    30    25   ar
    30    16    17    1
    31    16    18    1
    32    12    13    1
    33    23    24    1
    34     8    10    1
    35     8    11    1
@<TRIPOS>MOLECULE
*****
 34 35 0 0 0
SMALL
GASTEIGER

@<TRIPOS>ATOM
      1 C         138.7165  143.4714  161.2554 C.ar    1  UNL1        0.1515
      2 C         140.0344  144.0345  161.6982 C.ar    1  UNL1        0.0522
      3 C         141.1406  144.2256  160.7034 C.ar    1  UNL1        0.0764
      4 C         140.9290  143.8537  159.2657 C.ar    1  UNL1        0.1691
      5 N         139.6111  143.2907  158.8229 N.ar    1  UNL1       -0.1409
      6 N         138.5049  143.0995  159.8178 N.ar    1  UNL1       -0.1329
      7 C         142.0352  144.0448  158.2709 C.2     1  UNL1        0.2635
      8 N         142.5676  142.8694  157.5062 N.am    1  UNL1       -0.3240
      9 O         142.6091  145.4114  158.0408 O.2     1  UNL1       -0.2686
     10 H         142.1909  141.9724  157.6572 H       1  UNL1        0.1453
     11 H         143.2936  142.9948  156.8532 H       1  UNL1        0.1453
     12 N         137.6103  143.2803  162.2502 N.pl3   1  UNL1       -0.3169
     13 H         136.8253  143.8743  162.2337 H       1  UNL1        0.1482
     14 C         137.6999  142.1842  163.2702 C.3     1  UNL1        0.0859
     15 C         137.5732  140.7514  162.8446 C.3     1  UNL1        0.0849
     16 N         137.1837  140.4195  161.4346 N.3     1  UNL1       -0.3198
     17 H         136.2287  140.7337  161.2628 H       1  UNL1        0.1189
     18 H         137.2401  139.4107  161.2948 H       1  UNL1        0.1189
     19 C         137.9164  142.5208  164.7159 C.3     1  UNL1        0.0209
     20 C         138.6372  144.9256  165.3848 C.3     1  UNL1        0.0001
     21 C         138.9887  143.4941  165.1069 C.3     1  UNL1        0.0017
     22 C         140.4125  143.0359  165.2199 C.3     1  UNL1        0.0001
     23 N         142.4586  144.7887  161.1463 N.pl3   1  UNL1       -0.2965
     24 H         142.9125  145.4688  160.5980 H       1  UNL1        0.1537
     25 C         143.0849  144.3154  162.4244 C.ar    1  UNL1        0.1318
     26 C         143.3274  145.2836  163.5442 C.ar    1  UNL1        0.0344
     27 C         143.9537  144.8103  164.8224 C.ar    1  UNL1        0.0041
     28 C         144.3375  143.3689  164.9809 C.ar    1  UNL1        0.0148
     29 C         144.0949  142.4008  163.8611 C.ar    1  UNL1        0.0597
     30 N         143.4686  142.8740  162.5829 N.ar    1  UNL1       -0.2349
     31 C         144.4786  140.9594  164.0195 C.3     1  UNL1        0.0355
     32 C         145.9192  141.3196  163.8080 C.3     1  UNL1        0.0059
     33 C         143.0380  140.5991  164.2311 C.3     1  UNL1        0.0059
     34 C         144.8624  139.5179  164.1780 C.3     1  UNL1        0.0059
@<TRIPOS>BOND
     1    20    21    1
     2    21    22    1
     3    21    19    1
     4    14    19    1
     5    14    15    1
     6    15    16    1
     7    14    12    1
     8    12     1    1
     9     1     2   ar
    10     2     3   ar
    11     3    23    1
    12    23    25    1
    13    25    26   ar
    14    26    27   ar
    15    27    28   ar
    16    28    29   ar
    17    29    31    1
    18    31    32    1
    19    31    33    1
    20    31    34    1
    21    29    30   ar
    22     3     4   ar
    23     4     7    1
    24     7     8   am
    25     7     9    2
    26     4     5   ar
    27     5     6   ar
    28     6     1   ar
    29    30    25   ar
    30    16    17    1
    31    16    18    1
    32    12    13    1
    33    23    24    1
    34     8    10    1
    35     8    11    1
@<TRIPOS>MOLECULE
*****
 34 35 0 0 0
SMALL
GASTEIGER

@<TRIPOS>ATOM
      1 C         140.7302  145.0635  162.5982 C.ar    1  UNL1        0.1515
      2 C         141.8957  144.1326  162.4403 C.ar    1  UNL1        0.0522
      3 C         142.4191  143.8117  161.0717 C.ar    1  UNL1        0.0764
      4 C         141.7771  144.4216  159.8611 C.ar    1  UNL1        0.1691
      5 N         140.6116  145.3525  160.0190 N.ar    1  UNL1       -0.1409
      6 N         140.0881  145.6735  161.3875 N.ar    1  UNL1       -0.1329
      7 C         142.3006  144.1006  158.4925 C.2     1  UNL1        0.2635
      8 N         142.7679  145.2041  157.5904 N.am    1  UNL1       -0.3240
      9 O         142.3568  142.6761  158.0260 O.2     1  UNL1       -0.2686
     10 H         142.7310  146.1391  157.8965 H       1  UNL1        0.1453
     11 H         143.1115  144.9935  156.6922 H       1  UNL1        0.1453
     12 N         140.2067  145.3845  163.9667 N.pl3   1  UNL1       -0.3169
     13 H         140.4439  146.2377  164.3969 H       1  UNL1        0.1482
     14 C         139.3217  144.4056  164.6799 C.3     1  UNL1        0.0859
     15 C         137.8946  144.2339  164.2508 C.3     1  UNL1        0.0849
     16 N         137.5149  144.4304  162.8131 N.3     1  UNL1       -0.3198
     17 H         137.6543  145.4074  162.5551 H       1  UNL1        0.1189
     18 H         136.5344  144.1811  162.6833 H       1  UNL1        0.1189
     19 C         139.8638  143.5984  165.8220 C.3     1  UNL1        0.0209
     20 C         142.2012  142.4640  165.8263 C.3     1  UNL1        0.0001
     21 C         140.7278  142.4023  165.5517 C.3     1  UNL1        0.0017
     22 C         140.1184  141.1447  165.0067 C.3     1  UNL1        0.0001
     23 N         143.5847  142.8807  160.9139 N.pl3   1  UNL1       -0.2965
     24 H         144.0946  142.8688  160.0718 H       1  UNL1        0.1537
     25 C         143.9734  141.9681  162.0390 C.ar    1  UNL1        0.1318
     26 C         145.2558  142.1979  162.7823 C.ar    1  UNL1        0.0344
     27 C         145.6444  141.2852  163.9075 C.ar    1  UNL1        0.0041
     28 C         144.7507  140.1427  164.2893 C.ar    1  UNL1        0.0148
     29 C         143.4682  139.9129  163.5460 C.ar    1  UNL1        0.0597
     30 N         143.0796  140.8255  162.4209 N.ar    1  UNL1       -0.2349
     31 C         142.5744  138.7704  163.9278 C.3     1  UNL1        0.0355
     32 C         141.9726  138.7821  162.5539 C.3     1  UNL1        0.0059
     33 C         143.1763  138.7587  165.3017 C.3     1  UNL1        0.0059
     34 C         141.6806  137.6278  164.3096 C.3     1  UNL1        0.0059
@<TRIPOS>BOND
     1    20    21    1
     2    21    22    1
     3    21    19    1
     4    14    19    1
     5    14    15    1
     6    15    16    1
     7    14    12    1
     8    12     1    1
     9     1     2   ar
    10     2     3   ar
    11     3    23    1
    12    23    25    1
    13    25    26   ar
    14    26    27   ar
    15    27    28   ar
    16    28    29   ar
    17    29    31    1
    18    31    32    1
    19    31    33    1
    20    31    34    1
    21    29    30   ar
    22     3     4   ar
    23     4     7    1
    24     7     8   am
    25     7     9    2
    26     4     5   ar
    27     5     6   ar
    28     6     1   ar
    29    30    25   ar
    30    16    17    1
    31    16    18    1
    32    12    13    1
    33    23    24    1
    34     8    10    1
    35     8    11    1
