@<TRIPOS>MOLECULE
*****
 35 38 0 0 0
SMALL
GASTEIGER

@<TRIPOS>ATOM
      1 C         141.4800  138.6391  161.2046 C.ar    1  UNL1        0.0711
      2 C         142.2274  138.0392  160.0508 C.ar    1  UNL1        0.0076
      3 C         142.0220  138.5742  158.6645 C.ar    1  UNL1        0.0194
      4 C         141.0691  139.7090  158.4321 C.ar    1  UNL1        0.0988
      5 N         140.3216  140.3090  159.5860 N.ar    1  UNL1       -0.2436
      6 C         140.5271  139.7740  160.9722 C.ar    1  UNL1        0.0871
      7 C         142.7695  137.9742  157.5107 C.ar    1  UNL1        0.0032
      8 C         142.8349  136.4840  157.3528 C.ar    1  UNL1        0.0115
      9 C         143.5823  135.8841  156.1990 C.ar    1  UNL1        0.0585
     10 CL        143.6477  134.3938  156.0412 Cl      1  UNL1       -0.0822
     11 C         144.2645  136.7744  155.2029 C.ar    1  UNL1        0.0228
     12 C         144.1991  138.2646  155.3608 C.ar    1  UNL1        0.0585
     13 CL        144.8811  139.1549  154.3647 Cl      1  UNL1       -0.0822
     14 C         143.4515  138.8645  156.5146 C.ar    1  UNL1        0.0115
     15 C         139.7796  140.3739  162.1261 C.ar    1  UNL1        0.0370
     16 C         140.3408  141.5644  162.8457 C.ar    1  UNL1        0.0046
     17 C         139.5934  142.1643  163.9996 C.ar    1  UNL1        0.0207
     18 C         138.2848  141.5738  164.4338 C.ar    1  UNL1        0.0989
     19 N         137.7235  140.3834  163.7142 N.ar    1  UNL1       -0.2423
     20 C         138.4709  139.7834  162.5603 C.ar    1  UNL1        0.1003
     21 N         142.6618  138.7700  163.5146 N.am    1  UNL1       -0.2969
     22 C         141.6854  138.1042  162.5908 C.2     1  UNL1        0.2476
     23 O         140.9145  136.9034  163.0533 O.2     1  UNL1       -0.2701
     24 H         143.1677  139.5581  163.2111 H       1  UNL1        0.1501
     25 C         142.8672  138.2351  164.9008 C.3     1  UNL1        0.1167
     26 C         140.8296  140.2035  168.3971 C.ar    1  UNL1        0.1724
     27 C         140.0390  139.8415  167.1748 C.ar    1  UNL1        0.0398
     28 C         140.7182  139.1853  166.0094 C.ar    1  UNL1        0.0007
     29 C         142.1880  138.8913  166.0662 C.ar    1  UNL1        0.0007
     30 C         142.9785  139.2533  167.2885 C.ar    1  UNL1        0.0374
     31 C         142.2993  139.9094  168.4539 C.ar    1  UNL1        0.1721
     32 C         138.7787  140.4170  169.9776 C.3     1  UNL1        0.2526
     33 O         140.1504  140.8597  169.5625 O.3     1  UNL1       -0.4684
     34 O         143.0900  140.2715  169.6762 O.3     1  UNL1       -0.4684
     35 C         143.5142  141.6925  169.9012 C.3     1  UNL1        0.2526
@<TRIPOS>BOND
     1    32    33    1
     2    33    26    1
     3    26    27   ar
     4    27    28   ar
     5    28    29   ar
     6    29    25    1
     7    25    21    1
     8    21    22   am
     9    22    23    2
    10    22     1    1
    11     1     2   ar
    12     2     3   ar
    13     3     7    1
    14     7     8   ar
    15     8     9   ar
    16     9    10    1
    17     9    11   ar
    18    11    12   ar
    19    12    13    1
    20    12    14   ar
    21     3     4   ar
    22     4     5   ar
    23     5     6   ar
    24     6    15    1
    25    15    16   ar
    26    16    17   ar
    27    17    18   ar
    28    18    19   ar
    29    19    20   ar
    30    29    30   ar
    31    30    31   ar
    32    31    34    1
    33    34    35    1
    34    31    26   ar
    35     6     1   ar
    36    20    15   ar
    37    14     7   ar
    38    21    24    1
@<TRIPOS>MOLECULE
*****
 35 38 0 0 0
SMALL
GASTEIGER

@<TRIPOS>ATOM
      1 C         142.3824  143.7656  160.8536 C.ar    1  UNL1        0.0711
      2 C         141.8351  144.5077  159.6706 C.ar    1  UNL1        0.0076
      3 C         142.3197  144.1794  158.2895 C.ar    1  UNL1        0.0194
      4 C         143.3516  143.1089  158.0914 C.ar    1  UNL1        0.0988
      5 N         143.8989  142.3667  159.2746 N.ar    1  UNL1       -0.2436
      6 C         143.4143  142.6951  160.6556 C.ar    1  UNL1        0.0871
      7 C         141.7724  144.9216  157.1064 C.ar    1  UNL1        0.0032
      8 C         142.3647  144.7049  155.7455 C.ar    1  UNL1        0.0115
      9 C         141.8174  145.4470  154.5625 C.ar    1  UNL1        0.0585
     10 CL        142.4097  145.2303  153.2015 Cl      1  UNL1       -0.0822
     11 C         140.6777  146.4060  154.7403 C.ar    1  UNL1        0.0228
     12 C         140.0854  146.6227  156.1013 C.ar    1  UNL1        0.0585
     13 CL        138.9458  147.5816  156.2792 Cl      1  UNL1       -0.0822
     14 C         140.6328  145.8805  157.2843 C.ar    1  UNL1        0.0115
     15 C         143.9616  141.9529  161.8387 C.ar    1  UNL1        0.0370
     16 C         143.2909  140.6975  162.3123 C.ar    1  UNL1        0.0046
     17 C         143.8382  139.9553  163.4954 C.ar    1  UNL1        0.0207
     18 C         145.0560  140.4685  164.2048 C.ar    1  UNL1        0.0989
     19 N         145.7267  141.7239  163.7312 N.ar    1  UNL1       -0.2423
     20 C         145.1795  142.4660  162.5482 C.ar    1  UNL1        0.1003
     21 N         140.7837  143.2982  162.8475 N.am    1  UNL1       -0.2969
     22 C         141.8978  144.0939  162.2348 C.2     1  UNL1        0.2476
     23 O         142.5274  145.2179  163.0030 O.2     1  UNL1       -0.2701
     24 H         140.3705  142.5605  162.3433 H       1  UNL1        0.1501
     25 C         140.2991  143.6265  164.2286 C.3     1  UNL1        0.1167
     26 C         142.4279  141.9450  167.8190 C.ar    1  UNL1        0.1724
     27 C         143.2027  142.2937  166.5829 C.ar    1  UNL1        0.0398
     28 C         142.4931  142.8542  165.3861 C.ar    1  UNL1        0.0007
     29 C         141.0087  143.0660  165.4254 C.ar    1  UNL1        0.0007
     30 C         140.2338  142.7173  166.6615 C.ar    1  UNL1        0.0374
     31 C         140.9434  142.1569  167.8583 C.ar    1  UNL1        0.1721
     32 C         143.9279  142.2914  169.9118 C.3     1  UNL1        0.2526
     33 O         143.1375  141.3846  169.0158 O.3     1  UNL1       -0.4684
     34 O         140.1685  141.8082  169.0945 O.3     1  UNL1       -0.4684
     35 C         140.0973  142.7807  170.2342 C.3     1  UNL1        0.2526
@<TRIPOS>BOND
     1    32    33    1
     2    33    26    1
     3    26    27   ar
     4    27    28   ar
     5    28    29   ar
     6    29    25    1
     7    25    21    1
     8    21    22   am
     9    22    23    2
    10    22     1    1
    11     1     2   ar
    12     2     3   ar
    13     3     7    1
    14     7     8   ar
    15     8     9   ar
    16     9    10    1
    17     9    11   ar
    18    11    12   ar
    19    12    13    1
    20    12    14   ar
    21     3     4   ar
    22     4     5   ar
    23     5     6   ar
    24     6    15    1
    25    15    16   ar
    26    16    17   ar
    27    17    18   ar
    28    18    19   ar
    29    19    20   ar
    30    29    30   ar
    31    30    31   ar
    32    31    34    1
    33    34    35    1
    34    31    26   ar
    35     6     1   ar
    36    20    15   ar
    37    14     7   ar
    38    21    24    1
@<TRIPOS>MOLECULE
*****
 35 38 0 0 0
SMALL
GASTEIGER

@<TRIPOS>ATOM
      1 C         141.1700  143.1047  160.4199 C.ar    1  UNL1        0.0711
      2 C         140.2394  143.6509  159.3781 C.ar    1  UNL1        0.0076
      3 C         140.7926  144.2718  158.1296 C.ar    1  UNL1        0.0194
      4 C         142.2764  144.3463  157.9231 C.ar    1  UNL1        0.0988
      5 N         143.2071  143.8000  158.9650 N.ar    1  UNL1       -0.2436
      6 C         142.6539  143.1792  160.2134 C.ar    1  UNL1        0.0871
      7 C         139.8619  144.8180  157.0878 C.ar    1  UNL1        0.0032
      8 C         138.8555  143.9176  156.4348 C.ar    1  UNL1        0.0115
      9 C         137.9249  144.4639  155.3930 C.ar    1  UNL1        0.0585
     10 CL        136.9185  143.5634  154.7401 Cl      1  UNL1       -0.0822
     11 C         138.0006  145.9106  155.0041 C.ar    1  UNL1        0.0228
     12 C         139.0070  146.8111  155.6570 C.ar    1  UNL1        0.0585
     13 CL        139.0828  148.2578  155.2682 Cl      1  UNL1       -0.0822
     14 C         139.9377  146.2647  156.6989 C.ar    1  UNL1        0.0115
     15 C         143.5845  142.6329  161.2553 C.ar    1  UNL1        0.0370
     16 C         144.1031  143.5282  162.3413 C.ar    1  UNL1        0.0046
     17 C         145.0337  142.9820  163.3832 C.ar    1  UNL1        0.0207
     18 C         145.4457  141.5404  163.3390 C.ar    1  UNL1        0.0989
     19 N         144.9272  140.6451  162.2530 N.ar    1  UNL1       -0.2423
     20 C         143.9966  141.1913  161.2111 C.ar    1  UNL1        0.1003
     21 N         140.2584  143.3483  162.8406 N.am    1  UNL1       -0.2969
     22 C         140.6169  142.4838  161.6684 C.2     1  UNL1        0.2476
     23 O         140.4221  140.9985  161.7446 O.2     1  UNL1       -0.2701
     24 H         140.3863  144.3232  162.7906 H       1  UNL1        0.1501
     25 C         139.7053  142.7276  164.0890 C.3     1  UNL1        0.1167
     26 C         142.3366  142.2148  167.7034 C.ar    1  UNL1        0.1724
     27 C         142.9085  142.0377  166.3281 C.ar    1  UNL1        0.0398
     28 C         142.0314  142.2086  165.1233 C.ar    1  UNL1        0.0007
     29 C         140.5824  142.5567  165.2938 C.ar    1  UNL1        0.0007
     30 C         140.0105  142.7338  166.6691 C.ar    1  UNL1        0.0374
     31 C         140.8876  142.5629  167.8739 C.ar    1  UNL1        0.1721
     32 C         143.0659  140.8304  169.7774 C.3     1  UNL1        0.2526
     33 O         143.2137  142.0439  168.9081 O.3     1  UNL1       -0.4684
     34 O         140.3156  142.7401  169.2492 O.3     1  UNL1       -0.4684
     35 C         140.4630  144.0531  169.9594 C.3     1  UNL1        0.2526
@<TRIPOS>BOND
     1    32    33    1
     2    33    26    1
     3    26    27   ar
     4    27    28   ar
     5    28    29   ar
     6    29    25    1
     7    25    21    1
     8    21    22   am
     9    22    23    2
    10    22     1    1
    11     1     2   ar
    12     2     3   ar
    13     3     7    1
    14     7     8   ar
    15     8     9   ar
    16     9    10    1
    17     9    11   ar
    18    11    12   ar
    19    12    13    1
    20    12    14   ar
    21     3     4   ar
    22     4     5   ar
    23     5     6   ar
    24     6    15    1
    25    15    16   ar
    26    16    17   ar
    27    17    18   ar
    28    18    19   ar
    29    19    20   ar
    30    29    30   ar
    31    30    31   ar
    32    31    34    1
    33    34    35    1
    34    31    26   ar
    35     6     1   ar
    36    20    15   ar
    37    14     7   ar
    38    21    24    1
@<TRIPOS>MOLECULE
*****
 35 38 0 0 0
SMALL
GASTEIGER

@<TRIPOS>ATOM
      1 C         138.4707  141.1107  160.9904 C.ar    1  UNL1        0.0711
      2 C         137.9977  141.8414  159.7688 C.ar    1  UNL1        0.0076
      3 C         138.1965  141.2380  158.4100 C.ar    1  UNL1        0.0194
      4 C         138.8683  139.9039  158.2728 C.ar    1  UNL1        0.0988
      5 N         139.3413  139.1732  159.4945 N.ar    1  UNL1       -0.2436
      6 C         139.1425  139.7766  160.8532 C.ar    1  UNL1        0.0871
      7 C         137.7236  141.9687  157.1884 C.ar    1  UNL1        0.0032
      8 C         136.5512  141.4488  156.4103 C.ar    1  UNL1        0.0115
      9 C         136.0783  142.1795  155.1887 C.ar    1  UNL1        0.0585
     10 CL        134.9060  141.6596  154.4107 Cl      1  UNL1       -0.0822
     11 C         136.7777  143.4302  154.7451 C.ar    1  UNL1        0.0228
     12 C         137.9500  143.9501  155.5232 C.ar    1  UNL1        0.0585
     13 CL        138.6494  145.2007  155.0796 Cl      1  UNL1       -0.0822
     14 C         138.4229  143.2193  156.7448 C.ar    1  UNL1        0.0115
     15 C         139.6154  139.0459  162.0749 C.ar    1  UNL1        0.0370
     16 C         138.6570  138.2024  162.8623 C.ar    1  UNL1        0.0046
     17 C         139.1299  137.4717  164.0839 C.ar    1  UNL1        0.0207
     18 C         140.5612  137.5845  164.5182 C.ar    1  UNL1        0.0989
     19 N         141.5196  138.4280  163.7308 N.ar    1  UNL1       -0.2423
     20 C         141.0467  139.1587  162.5092 C.ar    1  UNL1        0.1003
     21 N         139.4037  142.4301  163.0249 N.am    1  UNL1       -0.2969
     22 C         138.2719  141.7141  162.3493 C.2     1  UNL1        0.2476
     23 O         136.9413  141.6015  163.0325 O.2     1  UNL1       -0.2701
     24 H         140.2770  142.5039  162.5764 H       1  UNL1        0.1501
     25 C         139.2049  143.0334  164.3836 C.3     1  UNL1        0.1167
     26 C         140.3621  140.7183  168.0648 C.ar    1  UNL1        0.1724
     27 C         139.6697  140.0246  166.9293 C.ar    1  UNL1        0.0398
     28 C         139.2840  140.7963  165.7023 C.ar    1  UNL1        0.0007
     29 C         139.5906  142.2617  165.6107 C.ar    1  UNL1        0.0007
     30 C         140.2830  142.9554  166.7462 C.ar    1  UNL1        0.0374
     31 C         140.6687  142.1837  167.9732 C.ar    1  UNL1        0.1721
     32 C         139.9496  140.0953  170.5531 C.3     1  UNL1        0.2526
     33 O         140.7478  139.9465  169.2919 O.3     1  UNL1       -0.4684
     34 O         141.3611  142.8775  169.1087 O.3     1  UNL1       -0.4684
     35 C         140.6383  143.9281  169.8984 C.3     1  UNL1        0.2526
@<TRIPOS>BOND
     1    32    33    1
     2    33    26    1
     3    26    27   ar
     4    27    28   ar
     5    28    29   ar
     6    29    25    1
     7    25    21    1
     8    21    22   am
     9    22    23    2
    10    22     1    1
    11     1     2   ar
    12     2     3   ar
    13     3     7    1
    14     7     8   ar
    15     8     9   ar
    16     9    10    1
    17     9    11   ar
    18    11    12   ar
    19    12    13    1
    20    12    14   ar
    21     3     4   ar
    22     4     5   ar
    23     5     6   ar
    24     6    15    1
    25    15    16   ar
    26    16    17   ar
    27    17    18   ar
    28    18    19   ar
    29    19    20   ar
    30    29    30   ar
    31    30    31   ar
    32    31    34    1
    33    34    35    1
    34    31    26   ar
    35     6     1   ar
    36    20    15   ar
    37    14     7   ar
    38    21    24    1
@<TRIPOS>MOLECULE
*****
 35 38 0 0 0
SMALL
GASTEIGER

@<TRIPOS>ATOM
      1 C         140.6882  144.0637  161.3317 C.ar    1  UNL1        0.0711
      2 C         139.9417  144.4285  160.0829 C.ar    1  UNL1        0.0076
      3 C         140.6704  144.5274  158.7754 C.ar    1  UNL1        0.0194
      4 C         142.1454  144.2614  158.7169 C.ar    1  UNL1        0.0988
      5 N         142.8919  143.8966  159.9658 N.ar    1  UNL1       -0.2436
      6 C         142.1633  143.7977  161.2732 C.ar    1  UNL1        0.0871
      7 C         139.9239  144.8922  157.5266 C.ar    1  UNL1        0.0032
      8 C         139.1756  143.8385  156.7652 C.ar    1  UNL1        0.0115
      9 C         138.4291  144.2033  155.5164 C.ar    1  UNL1        0.0585
     10 CL        137.6808  143.1496  154.7550 Cl      1  UNL1       -0.0822
     11 C         138.4309  145.6219  155.0288 C.ar    1  UNL1        0.0228
     12 C         139.1793  146.6756  155.7902 C.ar    1  UNL1        0.0585
     13 CL        139.1811  148.0942  155.3027 Cl      1  UNL1       -0.0822
     14 C         139.9258  146.3108  157.0391 C.ar    1  UNL1        0.0115
     15 C         142.9097  143.4329  162.5221 C.ar    1  UNL1        0.0370
     16 C         143.4475  144.5105  163.4163 C.ar    1  UNL1        0.0046
     17 C         144.1939  144.1458  164.6652 C.ar    1  UNL1        0.0207
     18 C         144.4026  142.7034  165.0199 C.ar    1  UNL1        0.0989
     19 N         143.8648  141.6257  164.1257 N.ar    1  UNL1       -0.2423
     20 C         143.1184  141.9905  162.8769 C.ar    1  UNL1        0.1003
     21 N         139.2480  142.6967  163.0073 N.am    1  UNL1       -0.2969
     22 C         139.9596  143.9649  162.6392 C.2     1  UNL1        0.2476
     23 O         139.9426  145.1341  163.5786 O.2     1  UNL1       -0.2701
     24 H         139.2592  141.9293  162.3907 H       1  UNL1        0.1501
     25 C         138.5194  142.5978  164.3147 C.3     1  UNL1        0.1167
     26 C         140.4560  140.5455  167.8200 C.ar    1  UNL1        0.1724
     27 C         139.5357  139.7791  166.9169 C.ar    1  UNL1        0.0398
     28 C         138.8902  140.4632  165.7485 C.ar    1  UNL1        0.0007
     29 C         139.1650  141.9137  165.4831 C.ar    1  UNL1        0.0007
     30 C         140.0853  142.6801  166.3862 C.ar    1  UNL1        0.0374
     31 C         140.7308  141.9960  167.5547 C.ar    1  UNL1        0.1721
     32 C         140.4308  139.8756  170.3301 C.3     1  UNL1        0.2526
     33 O         141.1015  139.8614  168.9885 O.3     1  UNL1       -0.4684
     34 O         141.6511  142.7625  168.4578 O.3     1  UNL1       -0.4684
     35 C         141.1142  143.4142  169.6975 C.3     1  UNL1        0.2526
@<TRIPOS>BOND
     1    32    33    1
     2    33    26    1
     3    26    27   ar
     4    27    28   ar
     5    28    29   ar
     6    29    25    1
     7    25    21    1
     8    21    22   am
     9    22    23    2
    10    22     1    1
    11     1     2   ar
    12     2     3   ar
    13     3     7    1
    14     7     8   ar
    15     8     9   ar
    16     9    10    1
    17     9    11   ar
    18    11    12   ar
    19    12    13    1
    20    12    14   ar
    21     3     4   ar
    22     4     5   ar
    23     5     6   ar
    24     6    15    1
    25    15    16   ar
    26    16    17   ar
    27    17    18   ar
    28    18    19   ar
    29    19    20   ar
    30    29    30   ar
    31    30    31   ar
    32    31    34    1
    33    34    35    1
    34    31    26   ar
    35     6     1   ar
    36    20    15   ar
    37    14     7   ar
    38    21    24    1
@<TRIPOS>MOLECULE
*****
 35 38 0 0 0
SMALL
GASTEIGER

@<TRIPOS>ATOM
      1 C         139.0610  140.9895  161.0155 C.ar    1  UNL1        0.0711
      2 C         138.9675  140.2261  159.7277 C.ar    1  UNL1        0.0076
      3 C         138.6383  140.9441  158.4525 C.ar    1  UNL1        0.0194
      4 C         138.4026  142.4255  158.4651 C.ar    1  UNL1        0.0988
      5 N         138.4961  143.1888  159.7531 N.ar    1  UNL1       -0.2436
      6 C         138.8253  142.4708  161.0282 C.ar    1  UNL1        0.0871
      7 C         138.5448  140.1808  157.1646 C.ar    1  UNL1        0.0032
      8 C         139.4183  138.9827  156.9378 C.ar    1  UNL1        0.0115
      9 C         139.3248  138.2194  155.6500 C.ar    1  UNL1        0.0585
     10 CL        140.1983  137.0212  155.4232 Cl      1  UNL1       -0.0822
     11 C         138.3577  138.6542  154.5889 C.ar    1  UNL1        0.0228
     12 C         137.4842  139.8523  154.8157 C.ar    1  UNL1        0.0585
     13 CL        136.5172  140.2871  153.7547 Cl      1  UNL1       -0.0822
     14 C         137.5778  140.6157  156.1036 C.ar    1  UNL1        0.0115
     15 C         138.9188  143.2341  162.3161 C.ar    1  UNL1        0.0370
     16 C         137.7090  143.3802  163.1909 C.ar    1  UNL1        0.0046
     17 C         137.8025  144.1435  164.4787 C.ar    1  UNL1        0.0207
     18 C         139.1057  144.7606  164.8919 C.ar    1  UNL1        0.0989
     19 N         140.3154  144.6145  164.0171 N.ar    1  UNL1       -0.2423
     20 C         140.2220  143.8512  162.7293 C.ar    1  UNL1        0.1003
     21 N         138.3159  140.0148  163.3058 N.am    1  UNL1       -0.2969
     22 C         139.3902  140.2715  162.2908 C.2     1  UNL1        0.2476
     23 O         140.7935  139.8102  162.5510 O.2     1  UNL1       -0.2701
     24 H         137.3949  140.3176  163.1350 H       1  UNL1        0.1501
     25 C         138.6451  139.2969  164.5810 C.3     1  UNL1        0.1167
     26 C         140.4706  141.5476  168.0236 C.ar    1  UNL1        0.1724
     27 C         140.6746  142.0316  166.6186 C.ar    1  UNL1        0.0398
     28 C         140.0661  141.2814  165.4711 C.ar    1  UNL1        0.0007
     29 C         139.2536  140.0471  165.7285 C.ar    1  UNL1        0.0007
     30 C         139.0496  139.5630  167.1335 C.ar    1  UNL1        0.0374
     31 C         139.6581  140.3133  168.2810 C.ar    1  UNL1        0.1721
     32 C         140.4379  143.5603  169.6661 C.3     1  UNL1        0.2526
     33 O         141.0791  142.2978  169.1712 O.3     1  UNL1       -0.4684
     34 O         139.4541  139.8291  169.6861 O.3     1  UNL1       -0.4684
     35 C         138.1506  140.0808  170.3842 C.3     1  UNL1        0.2526
@<TRIPOS>BOND
     1    32    33    1
     2    33    26    1
     3    26    27   ar
     4    27    28   ar
     5    28    29   ar
     6    29    25    1
     7    25    21    1
     8    21    22   am
     9    22    23    2
    10    22     1    1
    11     1     2   ar
    12     2     3   ar
    13     3     7    1
    14     7     8   ar
    15     8     9   ar
    16     9    10    1
    17     9    11   ar
    18    11    12   ar
    19    12    13    1
    20    12    14   ar
    21     3     4   ar
    22     4     5   ar
    23     5     6   ar
    24     6    15    1
    25    15    16   ar
    26    16    17   ar
    27    17    18   ar
    28    18    19   ar
    29    19    20   ar
    30    29    30   ar
    31    30    31   ar
    32    31    34    1
    33    34    35    1
    34    31    26   ar
    35     6     1   ar
    36    20    15   ar
    37    14     7   ar
    38    21    24    1
@<TRIPOS>MOLECULE
*****
 35 38 0 0 0
SMALL
GASTEIGER

@<TRIPOS>ATOM
      1 C         138.6676  141.5885  160.1059 C.ar    1  UNL1        0.0711
      2 C         138.2609  142.4224  158.9273 C.ar    1  UNL1        0.0076
      3 C         138.1089  141.7882  157.5764 C.ar    1  UNL1        0.0194
      4 C         138.3636  140.3200  157.4042 C.ar    1  UNL1        0.0988
      5 N         138.7703  139.4861  158.5829 N.ar    1  UNL1       -0.2436
      6 C         138.9223  140.1203  159.9337 C.ar    1  UNL1        0.0871
      7 C         137.7023  142.6221  156.3978 C.ar    1  UNL1        0.0032
      8 C         138.1797  144.0393  156.2813 C.ar    1  UNL1        0.0115
      9 C         137.7731  144.8732  155.1027 C.ar    1  UNL1        0.0585
     10 CL        138.2506  146.2904  154.9861 Cl      1  UNL1       -0.0822
     11 C         136.8889  144.2899  154.0405 C.ar    1  UNL1        0.0228
     12 C         136.4114  142.8727  154.1570 C.ar    1  UNL1        0.0585
     13 CL        135.5273  142.2895  153.0949 Cl      1  UNL1       -0.0822
     14 C         136.8181  142.0388  155.3357 C.ar    1  UNL1        0.0115
     15 C         139.3289  139.2864  161.1124 C.ar    1  UNL1        0.0370
     16 C         138.2850  138.5913  161.9353 C.ar    1  UNL1        0.0046
     17 C         138.6916  137.7574  163.1139 C.ar    1  UNL1        0.0207
     18 C         140.1421  137.6186  163.4697 C.ar    1  UNL1        0.0989
     19 N         141.1861  138.3136  162.6468 N.ar    1  UNL1       -0.2423
     20 C         140.7795  139.1475  161.4682 C.ar    1  UNL1        0.1003
     21 N         137.6306  142.3535  162.3618 N.am    1  UNL1       -0.2969
     22 C         138.8195  142.2227  161.4567 C.2     1  UNL1        0.2476
     23 O         140.1604  142.7260  161.9024 O.2     1  UNL1       -0.2701
     24 H         136.7505  142.0232  162.0693 H       1  UNL1        0.1501
     25 C         137.7825  142.9877  163.7126 C.3     1  UNL1        0.1167
     26 C         140.3124  141.0009  166.8594 C.ar    1  UNL1        0.1724
     27 C         140.5507  142.4383  166.5028 C.ar    1  UNL1        0.0398
     28 C         139.7074  143.1005  165.4539 C.ar    1  UNL1        0.0007
     29 C         138.6258  142.3255  164.7616 C.ar    1  UNL1        0.0007
     30 C         138.3875  140.8881  165.1182 C.ar    1  UNL1        0.0374
     31 C         139.2308  140.2259  166.1671 C.ar    1  UNL1        0.1721
     32 C         141.0283  140.7524  169.3445 C.3     1  UNL1        0.2526
     33 O         141.1557  140.3387  167.9084 O.3     1  UNL1       -0.4684
     34 O         138.9924  138.7884  166.5237 O.3     1  UNL1       -0.4684
     35 C         137.6105  138.3216  166.8733 C.3     1  UNL1        0.2526
@<TRIPOS>BOND
     1    32    33    1
     2    33    26    1
     3    26    27   ar
     4    27    28   ar
     5    28    29   ar
     6    29    25    1
     7    25    21    1
     8    21    22   am
     9    22    23    2
    10    22     1    1
    11     1     2   ar
    12     2     3   ar
    13     3     7    1
    14     7     8   ar
    15     8     9   ar
    16     9    10    1
    17     9    11   ar
    18    11    12   ar
    19    12    13    1
    20    12    14   ar
    21     3     4   ar
    22     4     5   ar
    23     5     6   ar
    24     6    15    1
    25    15    16   ar
    26    16    17   ar
    27    17    18   ar
    28    18    19   ar
    29    19    20   ar
    30    29    30   ar
    31    30    31   ar
    32    31    34    1
    33    34    35    1
    34    31    26   ar
    35     6     1   ar
    36    20    15   ar
    37    14     7   ar
    38    21    24    1
@<TRIPOS>MOLECULE
*****
 35 38 0 0 0
SMALL
GASTEIGER

@<TRIPOS>ATOM
      1 C         141.0564  143.1127  160.4390 C.ar    1  UNL1        0.0711
      2 C         140.1568  143.6670  159.3744 C.ar    1  UNL1        0.0076
      3 C         140.7464  144.3232  158.1611 C.ar    1  UNL1        0.0194
      4 C         142.2355  144.4250  158.0125 C.ar    1  UNL1        0.0988
      5 N         143.1351  143.8706  159.0772 N.ar    1  UNL1       -0.2436
      6 C         142.5456  143.2145  160.2903 C.ar    1  UNL1        0.0871
      7 C         139.8468  144.8775  157.0965 C.ar    1  UNL1        0.0032
      8 C         139.9143  146.3331  156.7407 C.ar    1  UNL1        0.0115
      9 C         139.0147  146.8875  155.6761 C.ar    1  UNL1        0.0585
     10 CL        139.0822  148.3431  155.3202 Cl      1  UNL1       -0.0822
     11 C         138.0475  145.9862  154.9672 C.ar    1  UNL1        0.0228
     12 C         137.9800  144.5306  155.3231 C.ar    1  UNL1        0.0585
     13 CL        137.0130  143.6293  154.6143 Cl      1  UNL1       -0.0822
     14 C         138.8797  143.9762  156.3877 C.ar    1  UNL1        0.0115
     15 C         143.4452  142.6601  161.3550 C.ar    1  UNL1        0.0370
     16 C         143.7469  143.4721  162.5796 C.ar    1  UNL1        0.0046
     17 C         144.6465  142.9178  163.6442 C.ar    1  UNL1        0.0207
     18 C         145.2443  141.5514  163.4843 C.ar    1  UNL1        0.0989
     19 N         144.9425  140.7394  162.2598 N.ar    1  UNL1       -0.2423
     20 C         144.0430  141.2937  161.1951 C.ar    1  UNL1        0.1003
     21 N         140.0768  143.2868  162.8390 N.am    1  UNL1       -0.2969
     22 C         140.4669  142.4565  161.6522 C.2     1  UNL1        0.2476
     23 O         140.2674  140.9701  161.6787 O.2     1  UNL1       -0.2701
     24 H         140.2077  144.2625  162.8216 H       1  UNL1        0.1501
     25 C         139.4873  142.6308  164.0522 C.3     1  UNL1        0.1167
     26 C         142.1387  141.4856  167.5031 C.ar    1  UNL1        0.1724
     27 C         141.0547  142.5043  167.6960 C.ar    1  UNL1        0.0398
     28 C         140.1709  142.8860  166.5457 C.ar    1  UNL1        0.0007
     29 C         140.3711  142.2490  165.2025 C.ar    1  UNL1        0.0007
     30 C         141.4551  141.2304  165.0096 C.ar    1  UNL1        0.0374
     31 C         142.3389  140.8487  166.1599 C.ar    1  UNL1        0.1721
     32 C         142.6295  139.9742  169.5585 C.3     1  UNL1        0.2526
     33 O         143.0225  141.1039  168.6534 O.3     1  UNL1       -0.4684
     34 O         143.4229  139.8299  165.9670 O.3     1  UNL1       -0.4684
     35 C         143.0704  138.3809  165.8061 C.3     1  UNL1        0.2526
@<TRIPOS>BOND
     1    32    33    1
     2    33    26    1
     3    26    27   ar
     4    27    28   ar
     5    28    29   ar
     6    29    25    1
     7    25    21    1
     8    21    22   am
     9    22    23    2
    10    22     1    1
    11     1     2   ar
    12     2     3   ar
    13     3     7    1
    14     7     8   ar
    15     8     9   ar
    16     9    10    1
    17     9    11   ar
    18    11    12   ar
    19    12    13    1
    20    12    14   ar
    21     3     4   ar
    22     4     5   ar
    23     5     6   ar
    24     6    15    1
    25    15    16   ar
    26    16    17   ar
    27    17    18   ar
    28    18    19   ar
    29    19    20   ar
    30    29    30   ar
    31    30    31   ar
    32    31    34    1
    33    34    35    1
    34    31    26   ar
    35     6     1   ar
    36    20    15   ar
    37    14     7   ar
    38    21    24    1
@<TRIPOS>MOLECULE
*****
 35 38 0 0 0
SMALL
GASTEIGER

@<TRIPOS>ATOM
      1 C         138.2437  141.2536  160.6415 C.ar    1  UNL1        0.0711
      2 C         137.8339  140.6626  159.3251 C.ar    1  UNL1        0.0076
      3 C         138.0554  141.4315  158.0563 C.ar    1  UNL1        0.0194
      4 C         138.6868  142.7913  158.1039 C.ar    1  UNL1        0.0988
      5 N         139.0966  143.3823  159.4204 N.ar    1  UNL1       -0.2436
      6 C         138.8751  142.6134  160.6891 C.ar    1  UNL1        0.0871
      7 C         137.6456  140.8406  156.7400 C.ar    1  UNL1        0.0032
      8 C         136.2381  141.0071  156.2488 C.ar    1  UNL1        0.0115
      9 C         135.8283  140.4162  154.9325 C.ar    1  UNL1        0.0585
     10 CL        134.4208  140.5827  154.4413 Cl      1  UNL1       -0.0822
     11 C         136.8260  139.6587  154.1072 C.ar    1  UNL1        0.0228
     12 C         138.2335  139.4921  154.5984 C.ar    1  UNL1        0.0585
     13 CL        139.2311  138.7347  153.7733 Cl      1  UNL1       -0.0822
     14 C         138.6433  140.0831  155.9149 C.ar    1  UNL1        0.0115
     15 C         139.2849  143.2043  162.0055 C.ar    1  UNL1        0.0370
     16 C         138.3199  144.0524  162.7799 C.ar    1  UNL1        0.0046
     17 C         138.7297  144.6433  164.0962 C.ar    1  UNL1        0.0207
     18 C         140.1044  144.3861  164.6383 C.ar    1  UNL1        0.0989
     19 N         141.0694  143.5381  163.8639 N.ar    1  UNL1       -0.2423
     20 C         140.6597  142.9472  162.5476 C.ar    1  UNL1        0.1003
     21 N         138.8811  139.2964  162.2269 N.am    1  UNL1       -0.2969
     22 C         138.0221  140.4847  161.9103 C.2     1  UNL1        0.2476
     23 O         136.9417  140.9041  162.8624 O.2     1  UNL1       -0.2701
     24 H         139.5903  139.0212  161.6019 H       1  UNL1        0.1501
     25 C         138.6596  138.5276  163.4956 C.3     1  UNL1        0.1167
     26 C         139.9093  140.2910  167.4426 C.ar    1  UNL1        0.1724
     27 C         138.6742  139.4442  167.3569 C.ar    1  UNL1        0.0398
     28 C         138.2576  138.8564  166.0412 C.ar    1  UNL1        0.0007
     29 C         139.0762  139.1154  164.8113 C.ar    1  UNL1        0.0007
     30 C         140.3113  139.9622  164.8970 C.ar    1  UNL1        0.0374
     31 C         140.7278  140.5500  166.2126 C.ar    1  UNL1        0.1721
     32 C         139.3893  140.8357  169.9291 C.3     1  UNL1        0.2526
     33 O         140.3259  140.8788  168.7583 O.3     1  UNL1       -0.4684
     34 O         141.9630  141.3969  166.2983 O.3     1  UNL1       -0.4684
     35 C         143.1787  141.0331  165.4985 C.3     1  UNL1        0.2526
@<TRIPOS>BOND
     1    32    33    1
     2    33    26    1
     3    26    27   ar
     4    27    28   ar
     5    28    29   ar
     6    29    25    1
     7    25    21    1
     8    21    22   am
     9    22    23    2
    10    22     1    1
    11     1     2   ar
    12     2     3   ar
    13     3     7    1
    14     7     8   ar
    15     8     9   ar
    16     9    10    1
    17     9    11   ar
    18    11    12   ar
    19    12    13    1
    20    12    14   ar
    21     3     4   ar
    22     4     5   ar
    23     5     6   ar
    24     6    15    1
    25    15    16   ar
    26    16    17   ar
    27    17    18   ar
    28    18    19   ar
    29    19    20   ar
    30    29    30   ar
    31    30    31   ar
    32    31    34    1
    33    34    35    1
    34    31    26   ar
    35     6     1   ar
    36    20    15   ar
    37    14     7   ar
    38    21    24    1
