@<TRIPOS>MOLECULE
*****
 41 46 0 0 0
SMALL
GASTEIGER

@<TRIPOS>ATOM
      1 C         138.4434  139.6196  159.8759 C.3     1  UNL1        0.0930
      2 C         139.4514  138.5142  159.9860 C.3     1  UNL1        0.0427
      3 C         139.8833  138.4219  161.4195 C.3     1  UNL1        0.0927
      4 N         139.1422  139.4701  162.1953 N.pl3   1  UNL1       -0.3033
      5 C         138.2523  140.2104  161.2413 C.3     1  UNL1        0.1104
      6 C         139.2688  139.7322  163.6669 C.ar    1  UNL1        0.0878
      7 C         138.8590  138.6799  164.6541 C.ar    1  UNL1        0.1543
      8 F         138.3225  137.3654  164.1698 F       1  UNL1       -0.2028
      9 C         138.9856  138.9419  166.1255 C.ar    1  UNL1        0.0356
     10 C         139.5220  140.2564  166.6098 C.ar    1  UNL1        0.0580
     11 C         139.6486  140.5184  168.0814 C.ar    1  UNL1        0.1996
     12 O         139.2387  139.4661  169.0685 O.2     1  UNL1       -0.2864
     13 C         140.1850  141.8329  168.5656 C.ar    1  UNL1        0.0701
     14 C         140.5949  142.8852  167.5784 C.ar    1  UNL1        0.0801
     15 N         140.4683  142.6231  166.1069 N.ar    1  UNL1       -0.3270
     16 C         139.9318  141.3087  165.6226 C.ar    1  UNL1        0.0750
     17 C         139.8053  141.0466  164.1512 C.ar    1  UNL1        0.0890
     18 CL        140.2151  142.0990  163.1639 Cl      1  UNL1       -0.0794
     19 C         140.3116  142.0949  170.0371 C.2     1  UNL1        0.0774
     20 O         139.2896  142.9391  170.7392 O.co2   1  UNL1       -0.5444
     21 O         141.4602  141.5129  170.8065 O.co2   1  UNL1       -0.5444
     22 C         140.8781  143.6755  165.1197 C.3     1  UNL1        0.0857
     23 C         140.5288  144.8442  164.2468 C.3     1  UNL1        0.0245
     24 C         141.9372  144.3294  164.2828 C.3     1  UNL1        0.0245
     25 C         138.0867  141.3796  157.9983 C.2     1  UNL1        0.2339
     26 O         139.1198  142.2641  158.6312 O.2     1  UNL1       -0.2741
     27 N         137.7485  140.0574  158.6207 N.am    1  UNL1       -0.3035
     28 H         137.0705  139.4768  158.2054 H       1  UNL1        0.1495
     29 C         137.3918  141.8173  156.7431 C.3     1  UNL1        0.1498
     30 S         136.6414  140.8178  155.9137 S.3     1  UNL1       -0.0659
     31 C         130.3872  139.7486  157.0735 C.2     1  UNL1        0.1223
     32 C         130.1920  140.7769  155.9991 C.2     1  UNL1        0.0343
     33 C         131.3824  141.4036  155.3356 C.2     1  UNL1        0.0232
     34 C         132.7680  141.0020  155.7466 C.2     1  UNL1        0.0975
     35 N         134.1220  141.4434  155.2760 N.2     1  UNL1       -0.2200
     36 C         135.1541  140.6879  156.0595 C.2     1  UNL1        0.1902
     37 N         134.4379  139.7795  157.0144 N.2     1  UNL1       -0.2236
     38 C         132.9632  139.9737  156.8210 C.2     1  UNL1        0.0863
     39 C         131.7728  139.3470  157.4845 C.3     1  UNL1        0.1112
     40 C         129.3437  137.8189  158.4655 C.3     1  UNL1        0.2520
     41 O         129.1968  139.1218  157.7370 O.2     1  UNL1       -0.4753
@<TRIPOS>UNITY_ATOM_ATTR
20 1
charge -1
@<TRIPOS>BOND
     1    40    41    1
     2    41    31    1
     3    31    32    2
     4    32    33    1
     5    33    34    2
     6    34    35    1
     7    35    36    2
     8    36    30    1
     9    30    29    1
    10    29    25    1
    11    25    26    2
    12    25    27   am
    13    27     1    1
    14     1     2    1
    15     2     3    1
    16     3     4    1
    17     4     6    1
    18     6     7   ar
    19     7     8    1
    20     7     9   ar
    21     9    10   ar
    22    10    11   ar
    23    11    12    2
    24    11    13   ar
    25    13    19    1
    26    19    20   ar
    27    19    21   ar
    28    13    14   ar
    29    14    15   ar
    30    15    22    1
    31    22    23    1
    32    23    24    1
    33    15    16   ar
    34    16    17   ar
    35    17    18    1
    36     4     5    1
    37    36    37    1
    38    37    38    2
    39    38    39    1
    40    39    31    1
    41    38    34    1
    42     5     1    1
    43    17     6   ar
    44    16    10   ar
    45    24    22    1
    46    27    28    1
@<TRIPOS>MOLECULE
*****
 41 46 0 0 0
SMALL
GASTEIGER

@<TRIPOS>ATOM
      1 C         140.5995  138.9018  159.1820 C.3     1  UNL1        0.0930
      2 C         140.1386  140.3271  159.1026 C.3     1  UNL1        0.0427
      3 C         139.7790  140.7758  160.4880 C.3     1  UNL1        0.0927
      4 N         140.0176  139.6280  161.4236 N.pl3   1  UNL1       -0.3033
      5 C         140.5247  138.4698  160.6165 C.3     1  UNL1        0.1104
      6 C         139.7892  139.6367  162.9062 C.ar    1  UNL1        0.0878
      7 C         138.6843  138.8141  163.4997 C.ar    1  UNL1        0.1543
      8 F         137.8077  137.9826  162.6107 F       1  UNL1       -0.2028
      9 C         138.4560  138.8228  164.9821 C.ar    1  UNL1        0.0356
     10 C         139.3326  139.6543  165.8711 C.ar    1  UNL1        0.0580
     11 C         139.1042  139.6630  167.3536 C.ar    1  UNL1        0.1996
     12 O         137.9993  138.8404  167.9471 O.2     1  UNL1       -0.2864
     13 C         139.9808  140.4945  168.2426 C.ar    1  UNL1        0.0701
     14 C         141.0858  141.3172  167.6490 C.ar    1  UNL1        0.0801
     15 N         141.3141  141.3084  166.1665 N.ar    1  UNL1       -0.3270
     16 C         140.4375  140.4770  165.2776 C.ar    1  UNL1        0.0750
     17 C         140.6658  140.4682  163.7951 C.ar    1  UNL1        0.0890
     18 CL        141.7708  141.2909  163.2015 Cl      1  UNL1       -0.0794
     19 C         139.7525  140.5033  169.7250 C.2     1  UNL1        0.0774
     20 O         140.3247  139.4105  170.5785 O.co2   1  UNL1       -0.5444
     21 O         138.9520  141.6049  170.3541 O.co2   1  UNL1       -0.5444
     22 C         142.4191  142.1311  165.5730 C.3     1  UNL1        0.0857
     23 C         143.8787  142.3411  165.2986 C.3     1  UNL1        0.0245
     24 C         142.8733  143.3459  164.8195 C.3     1  UNL1        0.0245
     25 C         142.5117  137.9919  157.6768 C.2     1  UNL1        0.2339
     26 O         143.5126  138.7716  158.4771 O.2     1  UNL1       -0.2741
     27 N         141.0551  138.0570  158.0294 N.am    1  UNL1       -0.3035
     28 H         140.3982  137.5452  157.5042 H       1  UNL1        0.1495
     29 C         142.9673  137.1471  156.5242 C.3     1  UNL1        0.1498
     30 S         142.1740  135.9402  156.1191 S.3     1  UNL1       -0.0659
     31 C         143.7167  129.7726  157.2075 C.2     1  UNL1        0.1223
     32 C         144.8958  130.3745  157.9128 C.2     1  UNL1        0.0343
     33 C         145.0530  131.8650  157.9732 C.2     1  UNL1        0.0232
     34 C         144.0311  132.7537  157.3284 C.2     1  UNL1        0.0975
     35 N         143.9206  134.2460  157.2254 N.2     1  UNL1       -0.2200
     36 C         142.6732  134.5666  156.4565 C.2     1  UNL1        0.1902
     37 N         142.0127  133.2723  156.0843 N.2     1  UNL1       -0.2236
     38 C         142.8519  132.1519  156.6231 C.2     1  UNL1        0.0863
     39 C         142.6947  130.6614  156.5627 C.3     1  UNL1        0.1112
     40 C         142.2262  127.6815  156.8128 C.3     1  UNL1        0.2520
     41 O         143.5595  128.2821  157.1471 O.2     1  UNL1       -0.4753
@<TRIPOS>UNITY_ATOM_ATTR
20 1
charge -1
@<TRIPOS>BOND
     1    40    41    1
     2    41    31    1
     3    31    32    2
     4    32    33    1
     5    33    34    2
     6    34    35    1
     7    35    36    2
     8    36    30    1
     9    30    29    1
    10    29    25    1
    11    25    26    2
    12    25    27   am
    13    27     1    1
    14     1     2    1
    15     2     3    1
    16     3     4    1
    17     4     6    1
    18     6     7   ar
    19     7     8    1
    20     7     9   ar
    21     9    10   ar
    22    10    11   ar
    23    11    12    2
    24    11    13   ar
    25    13    19    1
    26    19    20   ar
    27    19    21   ar
    28    13    14   ar
    29    14    15   ar
    30    15    22    1
    31    22    23    1
    32    23    24    1
    33    15    16   ar
    34    16    17   ar
    35    17    18    1
    36     4     5    1
    37    36    37    1
    38    37    38    2
    39    38    39    1
    40    39    31    1
    41    38    34    1
    42     5     1    1
    43    17     6   ar
    44    16    10   ar
    45    24    22    1
    46    27    28    1
@<TRIPOS>MOLECULE
*****
 41 46 0 0 0
SMALL
GASTEIGER

@<TRIPOS>ATOM
      1 C         140.5515  138.8176  160.5017 C.3     1  UNL1        0.0930
      2 C         139.2777  138.1656  160.9516 C.3     1  UNL1        0.0427
      3 C         139.1413  138.3853  162.4292 C.3     1  UNL1        0.0927
      4 N         140.3307  139.1731  162.8924 N.pl3   1  UNL1       -0.3033
      5 C         141.2023  139.4403  161.7012 C.3     1  UNL1        0.1104
      6 C         140.6012  139.6160  164.2998 C.ar    1  UNL1        0.0878
      7 C         141.2604  138.6785  165.2675 C.ar    1  UNL1        0.1543
      8 F         141.6491  137.2981  164.8279 F       1  UNL1       -0.2028
      9 C         141.5308  139.1214  166.6749 C.ar    1  UNL1        0.0356
     10 C         141.1420  140.5018  167.1145 C.ar    1  UNL1        0.0580
     11 C         141.4125  140.9447  168.5219 C.ar    1  UNL1        0.1996
     12 O         142.0717  140.0072  169.4896 O.2     1  UNL1       -0.2864
     13 C         141.0237  142.3252  168.9616 C.ar    1  UNL1        0.0701
     14 C         140.3645  143.2627  167.9938 C.ar    1  UNL1        0.0801
     15 N         140.0941  142.8198  166.5865 N.ar    1  UNL1       -0.3270
     16 C         140.4828  141.4393  166.1468 C.ar    1  UNL1        0.0750
     17 C         140.2124  140.9964  164.7395 C.ar    1  UNL1        0.0890
     18 CL        139.5532  141.9340  163.7717 Cl      1  UNL1       -0.0794
     19 C         141.2941  142.7681  170.3689 C.2     1  UNL1        0.0774
     20 O         140.2867  142.4980  171.4469 O.co2   1  UNL1       -0.5444
     21 O         142.5721  143.4811  170.6984 O.co2   1  UNL1       -0.5444
     22 C         139.4349  143.7573  165.6188 C.3     1  UNL1        0.0857
     23 C         139.5369  144.7732  164.5199 C.3     1  UNL1        0.0245
     24 C         138.1911  144.3652  165.0415 C.3     1  UNL1        0.0245
     25 C         142.2913  138.0320  158.7393 C.2     1  UNL1        0.2339
     26 O         142.9713  137.1963  159.7832 O.2     1  UNL1       -0.2741
     27 N         141.0814  138.8426  159.0986 N.am    1  UNL1       -0.3035
     28 H         140.6351  139.3910  158.4136 H       1  UNL1        0.1495
     29 C         142.8212  138.0569  157.3363 C.3     1  UNL1        0.1498
     30 S         142.0937  137.3265  156.2467 S.3     1  UNL1       -0.0659
     31 C         142.9108  130.9317  156.4534 C.2     1  UNL1        0.1223
     32 C         141.8037  130.9335  155.4413 C.2     1  UNL1        0.0343
     33 C         141.1967  132.2309  154.9960 C.2     1  UNL1        0.0232
     34 C         141.6968  133.5265  155.5627 C.2     1  UNL1        0.0975
     35 N         141.2960  134.9508  155.3166 N.2     1  UNL1       -0.2200
     36 C         142.1554  135.8294  156.1766 C.2     1  UNL1        0.1902
     37 N         143.0873  134.9480  156.9542 N.2     1  UNL1       -0.2236
     38 C         142.8039  133.5248  156.5748 C.2     1  UNL1        0.0863
     39 C         143.4108  132.2274  157.0202 C.3     1  UNL1        0.1112
     40 C         143.5006  129.2575  158.3506 C.3     1  UNL1        0.2520
     41 O         143.5177  129.6343  156.8988 O.2     1  UNL1       -0.4753
@<TRIPOS>UNITY_ATOM_ATTR
20 1
charge -1
@<TRIPOS>BOND
     1    40    41    1
     2    41    31    1
     3    31    32    2
     4    32    33    1
     5    33    34    2
     6    34    35    1
     7    35    36    2
     8    36    30    1
     9    30    29    1
    10    29    25    1
    11    25    26    2
    12    25    27   am
    13    27     1    1
    14     1     2    1
    15     2     3    1
    16     3     4    1
    17     4     6    1
    18     6     7   ar
    19     7     8    1
    20     7     9   ar
    21     9    10   ar
    22    10    11   ar
    23    11    12    2
    24    11    13   ar
    25    13    19    1
    26    19    20   ar
    27    19    21   ar
    28    13    14   ar
    29    14    15   ar
    30    15    22    1
    31    22    23    1
    32    23    24    1
    33    15    16   ar
    34    16    17   ar
    35    17    18    1
    36     4     5    1
    37    36    37    1
    38    37    38    2
    39    38    39    1
    40    39    31    1
    41    38    34    1
    42     5     1    1
    43    17     6   ar
    44    16    10   ar
    45    24    22    1
    46    27    28    1
@<TRIPOS>MOLECULE
*****
 41 46 0 0 0
SMALL
GASTEIGER

@<TRIPOS>ATOM
      1 C         140.1728  138.3938  160.8657 C.3     1  UNL1        0.0930
      2 C         141.4726  137.7589  161.2626 C.3     1  UNL1        0.0427
      3 C         141.6912  138.0241  162.7227 C.3     1  UNL1        0.0927
      4 N         140.5265  138.8228  163.2282 N.pl3   1  UNL1       -0.3033
      5 C         139.5881  139.0513  162.0805 C.3     1  UNL1        0.1104
      6 C         140.3340  139.3079  164.6345 C.ar    1  UNL1        0.0878
      7 C         139.3240  138.6462  165.5245 C.ar    1  UNL1        0.1543
      8 F         138.5066  137.4994  165.0083 F       1  UNL1       -0.2028
      9 C         139.1316  139.1314  166.9307 C.ar    1  UNL1        0.0356
     10 C         139.9490  140.2782  167.4470 C.ar    1  UNL1        0.0580
     11 C         139.7565  140.7634  168.8533 C.ar    1  UNL1        0.1996
     12 O         138.7466  140.1016  169.7433 O.2     1  UNL1       -0.2864
     13 C         140.5739  141.9102  169.3695 C.ar    1  UNL1        0.0701
     14 C         141.5839  142.5719  168.4795 C.ar    1  UNL1        0.0801
     15 N         141.7764  142.0868  167.0732 N.ar    1  UNL1       -0.3270
     16 C         140.9589  140.9399  166.5570 C.ar    1  UNL1        0.0750
     17 C         141.1514  140.4548  165.1508 C.ar    1  UNL1        0.0890
     18 CL        142.1614  141.1165  164.2607 Cl      1  UNL1       -0.0794
     19 C         140.3815  142.3953  170.7758 C.2     1  UNL1        0.0774
     20 O         141.3499  141.9915  171.8477 O.co2   1  UNL1       -0.5444
     21 O         139.2205  143.2844  171.1102 O.co2   1  UNL1       -0.5444
     22 C         142.7863  142.7485  166.1832 C.3     1  UNL1        0.0857
     23 C         144.2151  142.9973  165.8002 C.3     1  UNL1        0.0245
     24 C         143.1069  143.6458  165.0248 C.3     1  UNL1        0.0245
     25 C         140.2902  139.0051  158.3433 C.2     1  UNL1        0.2339
     26 O         141.6242  139.6551  158.5629 O.2     1  UNL1       -0.2741
     27 N         139.5645  138.3745  159.4947 N.am    1  UNL1       -0.3035
     28 H         138.6890  137.9479  159.3505 H       1  UNL1        0.1495
     29 C         139.6820  138.9858  156.9723 C.3     1  UNL1        0.1498
     30 S         140.4825  138.4929  155.8035 S.3     1  UNL1       -0.0659
     31 C         143.6634  132.9104  156.3702 C.2     1  UNL1        0.1223
     32 C         142.5366  132.3847  155.5313 C.2     1  UNL1        0.0343
     33 C         141.4424  133.3072  155.0819 C.2     1  UNL1        0.0232
     34 C         141.4750  134.7553  155.4715 C.2     1  UNL1        0.0975
     35 N         140.5440  135.8945  155.1795 N.2     1  UNL1       -0.2200
     36 C         141.0954  137.1242  155.8379 C.2     1  UNL1        0.1902
     37 N         142.3672  136.7451  156.5369 N.2     1  UNL1       -0.2236
     38 C         142.6019  135.2810  156.3104 C.2     1  UNL1        0.0863
     39 C         143.6961  134.3586  156.7598 C.3     1  UNL1        0.1112
     40 C         145.5224  132.2870  158.0748 C.3     1  UNL1        0.2520
     41 O         144.7576  131.9880  156.8195 O.2     1  UNL1       -0.4753
@<TRIPOS>UNITY_ATOM_ATTR
20 1
charge -1
@<TRIPOS>BOND
     1    40    41    1
     2    41    31    1
     3    31    32    2
     4    32    33    1
     5    33    34    2
     6    34    35    1
     7    35    36    2
     8    36    30    1
     9    30    29    1
    10    29    25    1
    11    25    26    2
    12    25    27   am
    13    27     1    1
    14     1     2    1
    15     2     3    1
    16     3     4    1
    17     4     6    1
    18     6     7   ar
    19     7     8    1
    20     7     9   ar
    21     9    10   ar
    22    10    11   ar
    23    11    12    2
    24    11    13   ar
    25    13    19    1
    26    19    20   ar
    27    19    21   ar
    28    13    14   ar
    29    14    15   ar
    30    15    22    1
    31    22    23    1
    32    23    24    1
    33    15    16   ar
    34    16    17   ar
    35    17    18    1
    36     4     5    1
    37    36    37    1
    38    37    38    2
    39    38    39    1
    40    39    31    1
    41    38    34    1
    42     5     1    1
    43    17     6   ar
    44    16    10   ar
    45    24    22    1
    46    27    28    1
@<TRIPOS>MOLECULE
*****
 41 46 0 0 0
SMALL
GASTEIGER

@<TRIPOS>ATOM
      1 C         143.4006  139.4323  159.9865 C.3     1  UNL1        0.0930
      2 C         143.9865  140.8013  160.1672 C.3     1  UNL1        0.0427
      3 C         143.8925  141.1576  161.6212 C.3     1  UNL1        0.0927
      4 N         143.2485  140.0088  162.3392 N.pl3   1  UNL1       -0.3033
      5 C         142.9445  138.9426  161.3289 C.3     1  UNL1        0.1104
      6 C         142.9592  139.9386  163.8094 C.ar    1  UNL1        0.0878
      7 C         143.9222  139.2510  164.7313 C.ar    1  UNL1        0.1543
      8 F         145.1744  138.6335  164.1830 F       1  UNL1       -0.2028
      9 C         143.6329  139.1808  166.2014 C.ar    1  UNL1        0.0356
     10 C         142.3807  139.7982  166.7497 C.ar    1  UNL1        0.0580
     11 C         142.0914  139.7280  168.2199 C.ar    1  UNL1        0.1996
     12 O         143.0544  139.0403  169.1418 O.2     1  UNL1       -0.2864
     13 C         140.8391  140.3454  168.7682 C.ar    1  UNL1        0.0701
     14 C         139.8761  141.0330  167.8463 C.ar    1  UNL1        0.0801
     15 N         140.1654  141.1032  166.3762 N.ar    1  UNL1       -0.3270
     16 C         141.4177  140.4858  165.8279 C.ar    1  UNL1        0.0750
     17 C         141.7070  140.5560  164.3578 C.ar    1  UNL1        0.0890
     18 CL        140.7440  141.2437  163.4358 Cl      1  UNL1       -0.0794
     19 C         140.5499  140.2752  170.2384 C.2     1  UNL1        0.0774
     20 O         141.4973  140.8990  171.2198 O.co2   1  UNL1       -0.5444
     21 O         139.3131  139.5811  170.7271 O.co2   1  UNL1       -0.5444
     22 C         139.2025  141.7909  165.4544 C.3     1  UNL1        0.0857
     23 C         138.7016  143.0432  164.7980 C.3     1  UNL1        0.0245
     24 C         138.0354  141.7296  164.5141 C.3     1  UNL1        0.0245
     25 C         142.2059  139.0320  157.7144 C.2     1  UNL1        0.2339
     26 O         141.2320  140.1274  158.0335 O.2     1  UNL1       -0.2741
     27 N         143.2902  138.6845  158.6910 N.am    1  UNL1       -0.3035
     28 H         143.9294  137.9656  158.4815 H       1  UNL1        0.1495
     29 C         142.0955  138.2841  156.4189 C.3     1  UNL1        0.1498
     30 S         141.4196  136.9456  156.3808 S.3     1  UNL1       -0.0659
     31 C         144.6503  131.3755  156.0057 C.2     1  UNL1        0.1223
     32 C         145.1760  131.7921  157.3474 C.2     1  UNL1        0.0343
     33 C         144.7304  133.0876  157.9583 C.2     1  UNL1        0.0232
     34 C         143.7592  133.9666  157.2275 C.2     1  UNL1        0.0975
     35 N         143.1437  135.2892  157.5762 N.2     1  UNL1       -0.2200
     36 C         142.2376  135.6901  156.4500 C.2     1  UNL1        0.1902
     37 N         142.2931  134.6153  155.4053 N.2     1  UNL1       -0.2236
     38 C         143.2335  133.5500  155.8858 C.2     1  UNL1        0.0863
     39 C         143.6791  132.2545  155.2749 C.3     1  UNL1        0.1112
     40 C         144.1528  128.9152  155.3355 C.3     1  UNL1        0.2520
     41 O         145.0959  130.0800  155.3948 O.2     1  UNL1       -0.4753
@<TRIPOS>UNITY_ATOM_ATTR
20 1
charge -1
@<TRIPOS>BOND
     1    40    41    1
     2    41    31    1
     3    31    32    2
     4    32    33    1
     5    33    34    2
     6    34    35    1
     7    35    36    2
     8    36    30    1
     9    30    29    1
    10    29    25    1
    11    25    26    2
    12    25    27   am
    13    27     1    1
    14     1     2    1
    15     2     3    1
    16     3     4    1
    17     4     6    1
    18     6     7   ar
    19     7     8    1
    20     7     9   ar
    21     9    10   ar
    22    10    11   ar
    23    11    12    2
    24    11    13   ar
    25    13    19    1
    26    19    20   ar
    27    19    21   ar
    28    13    14   ar
    29    14    15   ar
    30    15    22    1
    31    22    23    1
    32    23    24    1
    33    15    16   ar
    34    16    17   ar
    35    17    18    1
    36     4     5    1
    37    36    37    1
    38    37    38    2
    39    38    39    1
    40    39    31    1
    41    38    34    1
    42     5     1    1
    43    17     6   ar
    44    16    10   ar
    45    24    22    1
    46    27    28    1
@<TRIPOS>MOLECULE
*****
 41 46 0 0 0
SMALL
GASTEIGER

@<TRIPOS>ATOM
      1 C         142.7417  139.1437  160.6917 C.3     1  UNL1        0.0930
      2 C         143.6919  138.1578  161.3043 C.3     1  UNL1        0.0427
      3 C         143.7685  138.4404  162.7754 C.3     1  UNL1        0.0927
      4 N         142.8657  139.6009  163.0721 N.pl3   1  UNL1       -0.3033
      5 C         142.2311  140.0356  161.7843 C.3     1  UNL1        0.1104
      6 C         142.6376  140.2184  164.4200 C.ar    1  UNL1        0.0878
      7 C         143.6732  141.1264  165.0140 C.ar    1  UNL1        0.1543
      8 F         144.9371  141.4170  164.2602 F       1  UNL1       -0.2028
      9 C         143.4450  141.7439  166.3618 C.ar    1  UNL1        0.0356
     10 C         142.1812  141.4533  167.1156 C.ar    1  UNL1        0.0580
     11 C         141.9530  142.0708  168.4635 C.ar    1  UNL1        0.1996
     12 O         142.9887  142.9788  169.0575 O.2     1  UNL1       -0.2864
     13 C         140.6892  141.7802  169.2173 C.ar    1  UNL1        0.0701
     14 C         139.6535  140.8722  168.6233 C.ar    1  UNL1        0.0801
     15 N         139.8817  140.2547  167.2755 N.ar    1  UNL1       -0.3270
     16 C         141.1455  140.5453  166.5216 C.ar    1  UNL1        0.0750
     17 C         141.3737  139.9278  165.1738 C.ar    1  UNL1        0.0890
     18 CL        140.3380  139.0198  164.5798 Cl      1  UNL1       -0.0794
     19 C         140.4610  142.3977  170.5651 C.2     1  UNL1        0.0774
     20 O         140.7515  141.6115  171.8092 O.co2   1  UNL1       -0.5444
     21 O         139.9422  143.8013  170.6690 O.co2   1  UNL1       -0.5444
     22 C         138.8460  139.3467  166.6815 C.3     1  UNL1        0.0857
     23 C         138.1438  138.0215  166.6511 C.3     1  UNL1        0.0245
     24 C         137.7544  139.0990  165.6830 C.3     1  UNL1        0.0245
     25 C         140.9930  138.8196  158.7978 C.2     1  UNL1        0.2339
     26 O         139.9921  138.3354  159.8048 O.2     1  UNL1       -0.2741
     27 N         142.3678  139.2237  159.2413 N.am    1  UNL1       -0.3035
     28 H         143.0247  139.5414  158.5804 H       1  UNL1        0.1495
     29 C         140.6191  138.8995  157.3474 C.3     1  UNL1        0.1498
     30 S         141.5201  138.3037  156.3066 S.3     1  UNL1       -0.0659
     31 C         143.8866  132.3902  157.3233 C.2     1  UNL1        0.1223
     32 C         142.8826  131.9993  156.2797 C.2     1  UNL1        0.0343
     33 C         142.0025  133.0425  155.6575 C.2     1  UNL1        0.0232
     34 C         142.1264  134.4768  156.0790 C.2     1  UNL1        0.0975
     35 N         141.4010  135.7163  155.6463 N.2     1  UNL1       -0.2200
     36 C         141.9566  136.8733  156.4225 C.2     1  UNL1        0.1902
     37 N         143.0255  136.3489  157.3348 N.2     1  UNL1       -0.2236
     38 C         143.1304  134.8677  157.1225 C.2     1  UNL1        0.0863
     39 C         144.0105  133.8245  157.7447 C.3     1  UNL1        0.1112
     40 C         144.2565  129.9486  158.1306 C.3     1  UNL1        0.2520
     41 O         144.7667  131.3470  157.9454 O.2     1  UNL1       -0.4753
@<TRIPOS>UNITY_ATOM_ATTR
20 1
charge -1
@<TRIPOS>BOND
     1    40    41    1
     2    41    31    1
     3    31    32    2
     4    32    33    1
     5    33    34    2
     6    34    35    1
     7    35    36    2
     8    36    30    1
     9    30    29    1
    10    29    25    1
    11    25    26    2
    12    25    27   am
    13    27     1    1
    14     1     2    1
    15     2     3    1
    16     3     4    1
    17     4     6    1
    18     6     7   ar
    19     7     8    1
    20     7     9   ar
    21     9    10   ar
    22    10    11   ar
    23    11    12    2
    24    11    13   ar
    25    13    19    1
    26    19    20   ar
    27    19    21   ar
    28    13    14   ar
    29    14    15   ar
    30    15    22    1
    31    22    23    1
    32    23    24    1
    33    15    16   ar
    34    16    17   ar
    35    17    18    1
    36     4     5    1
    37    36    37    1
    38    37    38    2
    39    38    39    1
    40    39    31    1
    41    38    34    1
    42     5     1    1
    43    17     6   ar
    44    16    10   ar
    45    24    22    1
    46    27    28    1
@<TRIPOS>MOLECULE
*****
 41 46 0 0 0
SMALL
GASTEIGER

@<TRIPOS>ATOM
      1 C         143.8408  141.2052  160.7818 C.3     1  UNL1        0.0930
      2 C         144.1921  139.8082  161.2004 C.3     1  UNL1        0.0427
      3 C         143.9333  139.6865  162.6728 C.3     1  UNL1        0.0927
      4 N         143.4220  141.0083  163.1643 N.pl3   1  UNL1       -0.3033
      5 C         143.3649  141.9468  161.9956 C.3     1  UNL1        0.1104
      6 C         143.0356  141.3343  164.5766 C.ar    1  UNL1        0.0878
      7 C         143.9219  142.2079  165.4140 C.ar    1  UNL1        0.1543
      8 F         145.1946  142.7555  164.8392 F       1  UNL1       -0.2028
      9 C         143.5355  142.5339  166.8262 C.ar    1  UNL1        0.0356
     10 C         142.2629  141.9862  167.4011 C.ar    1  UNL1        0.0580
     11 C         141.8765  142.3123  168.8134 C.ar    1  UNL1        0.1996
     12 O         142.7628  143.1858  169.6507 O.2     1  UNL1       -0.2864
     13 C         140.6038  141.7646  169.3882 C.ar    1  UNL1        0.0701
     14 C         139.7175  140.8910  168.5507 C.ar    1  UNL1        0.0801
     15 N         140.1039  140.5650  167.1385 N.ar    1  UNL1       -0.3270
     16 C         141.3766  141.1127  166.5637 C.ar    1  UNL1        0.0750
     17 C         141.7629  140.7867  165.1514 C.ar    1  UNL1        0.0890
     18 CL        140.8766  139.9130  164.3140 Cl      1  UNL1       -0.0794
     19 C         140.2174  142.0906  170.8004 C.2     1  UNL1        0.0774
     20 O         140.6683  141.2058  171.9246 O.co2   1  UNL1       -0.5444
     21 O         139.3802  143.3015  171.0885 O.co2   1  UNL1       -0.5444
     22 C         139.2176  139.6914  166.3011 C.3     1  UNL1        0.0857
     23 C         138.0899  139.5424  165.3233 C.3     1  UNL1        0.0245
     24 C         138.8101  138.3275  165.8284 C.3     1  UNL1        0.0245
     25 C         142.7662  141.7052  158.4698 C.2     1  UNL1        0.2339
     26 O         141.4794  141.0904  158.9350 O.2     1  UNL1       -0.2741
     27 N         143.9469  141.7625  159.3932 N.am    1  UNL1       -0.3035
     28 H         144.7914  142.1660  159.0879 H       1  UNL1        0.1495
     29 C         142.8723  142.2625  157.0813 C.3     1  UNL1        0.1498
     30 S         143.4638  141.4305  155.9822 S.3     1  UNL1       -0.0659
     31 C         143.1394  134.9913  155.7939 C.2     1  UNL1        0.1223
     32 C         141.6608  135.2391  155.8444 C.2     1  UNL1        0.0343
     33 C         141.1372  136.6435  155.9027 C.2     1  UNL1        0.0232
     34 C         142.0922  137.8003  155.9106 C.2     1  UNL1        0.0975
     35 N         141.8722  139.2830  155.9625 N.2     1  UNL1       -0.2200
     36 C         143.2147  139.9518  155.9441 C.2     1  UNL1        0.1902
     37 N         144.2645  138.8823  155.8808 N.2     1  UNL1       -0.2236
     38 C         143.5707  137.5525  155.8601 C.2     1  UNL1        0.0863
     39 C         144.0943  136.1481  155.8018 C.3     1  UNL1        0.1112
     40 C         142.7109  132.4288  155.7860 C.3     1  UNL1        0.2520
     41 O         143.6630  133.5869  155.7356 O.2     1  UNL1       -0.4753
@<TRIPOS>UNITY_ATOM_ATTR
20 1
charge -1
@<TRIPOS>BOND
     1    40    41    1
     2    41    31    1
     3    31    32    2
     4    32    33    1
     5    33    34    2
     6    34    35    1
     7    35    36    2
     8    36    30    1
     9    30    29    1
    10    29    25    1
    11    25    26    2
    12    25    27   am
    13    27     1    1
    14     1     2    1
    15     2     3    1
    16     3     4    1
    17     4     6    1
    18     6     7   ar
    19     7     8    1
    20     7     9   ar
    21     9    10   ar
    22    10    11   ar
    23    11    12    2
    24    11    13   ar
    25    13    19    1
    26    19    20   ar
    27    19    21   ar
    28    13    14   ar
    29    14    15   ar
    30    15    22    1
    31    22    23    1
    32    23    24    1
    33    15    16   ar
    34    16    17   ar
    35    17    18    1
    36     4     5    1
    37    36    37    1
    38    37    38    2
    39    38    39    1
    40    39    31    1
    41    38    34    1
    42     5     1    1
    43    17     6   ar
    44    16    10   ar
    45    24    22    1
    46    27    28    1
@<TRIPOS>MOLECULE
*****
 41 46 0 0 0
SMALL
GASTEIGER

@<TRIPOS>ATOM
      1 C         139.6852  138.3941  160.4738 C.3     1  UNL1        0.0930
      2 C         138.3580  138.1709  161.1362 C.3     1  UNL1        0.0427
      3 C         138.5037  138.5062  162.5909 C.3     1  UNL1        0.0927
      4 N         139.9209  138.9367  162.8277 N.pl3   1  UNL1       -0.3033
      5 C         140.6511  138.8674  161.5193 C.3     1  UNL1        0.1104
      6 C         140.5054  139.3618  164.1422 C.ar    1  UNL1        0.0878
      7 C         141.3029  138.3883  164.9583 C.ar    1  UNL1        0.1543
      8 F         141.5160  136.9896  164.4601 F       1  UNL1       -0.2028
      9 C         141.8873  138.8134  166.2727 C.ar    1  UNL1        0.0356
     10 C         141.6742  140.2121  166.7710 C.ar    1  UNL1        0.0580
     11 C         142.2586  140.6372  168.0855 C.ar    1  UNL1        0.1996
     12 O         143.0561  139.6637  168.9016 O.2     1  UNL1       -0.2864
     13 C         142.0455  142.0359  168.5837 C.ar    1  UNL1        0.0701
     14 C         141.2479  143.0095  167.7675 C.ar    1  UNL1        0.0801
     15 N         140.6635  142.5843  166.4531 N.ar    1  UNL1       -0.3270
     16 C         140.8766  141.1856  165.9549 C.ar    1  UNL1        0.0750
     17 C         140.2922  140.7605  164.6405 C.ar    1  UNL1        0.0890
     18 CL        139.4946  141.7340  163.8243 Cl      1  UNL1       -0.0794
     19 C         142.6299  142.4610  169.8981 C.2     1  UNL1        0.0774
     20 O         144.0744  142.8559  169.9841 O.co2   1  UNL1       -0.5444
     21 O         141.7697  142.4914  171.1267 O.co2   1  UNL1       -0.5444
     22 C         139.8659  143.5578  165.6370 C.3     1  UNL1        0.0857
     23 C         138.5501  144.1859  165.2845 C.3     1  UNL1        0.0245
     24 C         139.8003  144.6160  164.5760 C.3     1  UNL1        0.0245
     25 C         139.5840  139.2110  158.0096 C.2     1  UNL1        0.2339
     26 O         138.8681  140.4532  158.4508 O.2     1  UNL1       -0.2741
     27 N         139.9926  138.1815  159.0212 N.am    1  UNL1       -0.3035
     28 H         140.4624  137.3662  158.7316 H       1  UNL1        0.1495
     29 C         139.8913  138.9983  156.5569 C.3     1  UNL1        0.1498
     30 S         141.2665  138.5721  156.1358 S.3     1  UNL1       -0.0659
     31 C         142.4347  132.2303  155.9952 C.2     1  UNL1        0.1223
     32 C         143.4866  132.5790  157.0060 C.2     1  UNL1        0.0343
     33 C         143.6691  134.0040  157.4375 C.2     1  UNL1        0.0232
     34 C         142.7996  135.0803  156.8581 C.2     1  UNL1        0.0975
     35 N         142.7473  136.5613  157.0892 N.2     1  UNL1       -0.2200
     36 C         141.6632  137.1280  156.2212 C.2     1  UNL1        0.1902
     37 N         141.0453  135.9971  155.4536 N.2     1  UNL1       -0.2236
     38 C         141.7477  134.7315  155.8473 C.2     1  UNL1        0.0863
     39 C         141.5652  133.3065  155.4158 C.3     1  UNL1        0.1112
     40 C         143.4380  129.9952  155.1302 C.3     1  UNL1        0.2520
     41 O         142.2523  130.8053  155.5637 O.2     1  UNL1       -0.4753
@<TRIPOS>UNITY_ATOM_ATTR
20 1
charge -1
@<TRIPOS>BOND
     1    40    41    1
     2    41    31    1
     3    31    32    2
     4    32    33    1
     5    33    34    2
     6    34    35    1
     7    35    36    2
     8    36    30    1
     9    30    29    1
    10    29    25    1
    11    25    26    2
    12    25    27   am
    13    27     1    1
    14     1     2    1
    15     2     3    1
    16     3     4    1
    17     4     6    1
    18     6     7   ar
    19     7     8    1
    20     7     9   ar
    21     9    10   ar
    22    10    11   ar
    23    11    12    2
    24    11    13   ar
    25    13    19    1
    26    19    20   ar
    27    19    21   ar
    28    13    14   ar
    29    14    15   ar
    30    15    22    1
    31    22    23    1
    32    23    24    1
    33    15    16   ar
    34    16    17   ar
    35    17    18    1
    36     4     5    1
    37    36    37    1
    38    37    38    2
    39    38    39    1
    40    39    31    1
    41    38    34    1
    42     5     1    1
    43    17     6   ar
    44    16    10   ar
    45    24    22    1
    46    27    28    1
@<TRIPOS>MOLECULE
*****
 41 46 0 0 0
SMALL
GASTEIGER

@<TRIPOS>ATOM
      1 C         140.4373  140.4131  158.9570 C.3     1  UNL1        0.0930
      2 C         139.4383  141.5302  159.0220 C.3     1  UNL1        0.0427
      3 C         138.9872  141.6664  160.4460 C.3     1  UNL1        0.0927
      4 N         139.7073  140.6335  161.2612 N.pl3   1  UNL1       -0.3033
      5 C         140.6035  139.8589  160.3409 C.3     1  UNL1        0.1104
      6 C         139.5576  140.4136  162.7375 C.ar    1  UNL1        0.0878
      7 C         138.4633  139.5288  163.2568 C.ar    1  UNL1        0.1543
      8 F         137.5188  138.8638  162.2999 F       1  UNL1       -0.2028
      9 C         138.3136  139.3090  164.7330 C.ar    1  UNL1        0.0356
     10 C         139.2581  139.9741  165.6899 C.ar    1  UNL1        0.0580
     11 C         139.1083  139.7543  167.1661 C.ar    1  UNL1        0.1996
     12 O         138.0141  138.8694  167.6855 O.2     1  UNL1       -0.2864
     13 C         140.0528  140.4193  168.1230 C.ar    1  UNL1        0.0701
     14 C         141.1471  141.3042  167.6036 C.ar    1  UNL1        0.0801
     15 N         141.2968  141.5239  166.1274 N.ar    1  UNL1       -0.3270
     16 C         140.3523  140.8589  165.1706 C.ar    1  UNL1        0.0750
     17 C         140.5021  141.0787  163.6943 C.ar    1  UNL1        0.0890
     18 CL        141.5963  141.9635  163.1750 Cl      1  UNL1       -0.0794
     19 C         139.9031  140.1995  169.5992 C.2     1  UNL1        0.0774
     20 O         140.8568  139.2963  170.3236 O.co2   1  UNL1       -0.5444
     21 O         138.7997  140.8830  170.3512 O.co2   1  UNL1       -0.5444
     22 C         142.3911  142.4087  165.6081 C.3     1  UNL1        0.0857
     23 C         143.8436  142.6435  165.3167 C.3     1  UNL1        0.0245
     24 C         142.8338  143.7065  165.0001 C.3     1  UNL1        0.0245
     25 C         140.4647  138.9762  156.7926 C.2     1  UNL1        0.2339
     26 O         139.0754  138.4970  157.0931 O.2     1  UNL1       -0.2741
     27 N         141.1456  139.9343  157.7245 N.am    1  UNL1       -0.3035
     28 H         142.0574  140.2488  157.5273 H       1  UNL1        0.1495
     29 C         141.1730  138.4974  155.5601 C.3     1  UNL1        0.1498
     30 S         140.7711  137.2020  154.9196 S.3     1  UNL1       -0.0659
     31 C         143.9035  132.0909  157.3002 C.2     1  UNL1        0.1223
     32 C         142.9569  131.3235  156.4256 C.2     1  UNL1        0.0343
     33 C         141.9444  132.0540  155.5942 C.2     1  UNL1        0.0232
     34 C         141.8785  133.5519  155.6375 C.2     1  UNL1        0.0975
     35 N         140.9939  134.5383  154.9345 N.2     1  UNL1       -0.2200
     36 C         141.3937  135.9154  155.3746 C.2     1  UNL1        0.1902
     37 N         142.5255  135.7801  156.3496 N.2     1  UNL1       -0.2236
     38 C         142.8251  134.3193  156.5121 C.2     1  UNL1        0.0863
     39 C         143.8376  133.5888  157.3434 C.3     1  UNL1        0.1112
     40 C         144.7699  129.8863  158.3676 C.3     1  UNL1        0.2520
     41 O         144.9161  131.3604  158.1316 O.2     1  UNL1       -0.4753
@<TRIPOS>UNITY_ATOM_ATTR
20 1
charge -1
@<TRIPOS>BOND
     1    40    41    1
     2    41    31    1
     3    31    32    2
     4    32    33    1
     5    33    34    2
     6    34    35    1
     7    35    36    2
     8    36    30    1
     9    30    29    1
    10    29    25    1
    11    25    26    2
    12    25    27   am
    13    27     1    1
    14     1     2    1
    15     2     3    1
    16     3     4    1
    17     4     6    1
    18     6     7   ar
    19     7     8    1
    20     7     9   ar
    21     9    10   ar
    22    10    11   ar
    23    11    12    2
    24    11    13   ar
    25    13    19    1
    26    19    20   ar
    27    19    21   ar
    28    13    14   ar
    29    14    15   ar
    30    15    22    1
    31    22    23    1
    32    23    24    1
    33    15    16   ar
    34    16    17   ar
    35    17    18    1
    36     4     5    1
    37    36    37    1
    38    37    38    2
    39    38    39    1
    40    39    31    1
    41    38    34    1
    42     5     1    1
    43    17     6   ar
    44    16    10   ar
    45    24    22    1
    46    27    28    1
