@<TRIPOS>MOLECULE
*****
 27 30 0 0 0
SMALL
GASTEIGER

@<TRIPOS>ATOM
      1 C         136.8871  137.7905  167.6278 C.3     1  UNL1        0.0737
      2 C         137.9522  138.6670  167.0385 C.ar    1  UNL1        0.1406
      3 N         138.1193  138.7467  165.5499 N.ar    1  UNL1       -0.2335
      4 C         139.1844  139.6231  164.9606 C.ar    1  UNL1        0.0793
      5 C         140.0824  140.4200  165.8599 C.ar    1  UNL1        0.0504
      6 C         139.9153  140.3404  167.3484 C.ar    1  UNL1        0.1343
      7 N         138.8501  139.4638  167.9377 N.ar    1  UNL1       -0.2160
      8 N         140.8133  141.1372  168.2477 N.pl3   1  UNL1       -0.2903
      9 C         142.2232  141.4324  167.8292 C.3     1  UNL1        0.1095
     10 C         143.1212  142.2293  168.7285 C.3     1  UNL1        0.0939
     11 N         142.6093  142.7308  170.0462 N.3     1  UNL1       -0.2686
     12 C         143.5073  143.5277  170.9454 C.3     1  UNL1        0.0897
     13 C         141.1994  142.4356  170.4647 C.3     1  UNL1        0.0939
     14 C         140.3014  141.6388  169.5654 C.3     1  UNL1        0.1095
     15 C         139.3515  139.7028  163.4721 C.3     1  UNL1        0.1191
     16 N         138.8866  140.9203  162.7293 N.3     1  UNL1       -0.2628
     17 C         138.3249  140.7853  161.3451 C.3     1  UNL1        0.0902
     18 C         138.9836  142.2727  163.3708 C.3     1  UNL1        0.0981
     19 C         137.8111  142.8335  164.1196 C.3     1  UNL1        0.0224
     20 C         137.9080  144.1859  164.7611 C.3     1  UNL1        0.0065
     21 C         139.1775  144.9776  164.6538 C.3     1  UNL1        0.0277
     22 C         140.3502  144.4169  163.9050 C.ar    1  UNL1       -0.0073
     23 C         141.6196  145.2086  163.7977 C.ar    1  UNL1       -0.0015
     24 C         142.7922  144.6478  163.0490 C.ar    1  UNL1        0.0203
     25 C         142.6952  143.2954  162.4075 C.ar    1  UNL1        0.0985
     26 N         141.4257  142.5037  162.5147 N.ar    1  UNL1       -0.2471
     27 C         140.2532  143.0644  163.2635 C.ar    1  UNL1        0.0695
@<TRIPOS>BOND
     1     1     2    1
     2     2     3   ar
     3     3     4   ar
     4     4    15    1
     5    15    16    1
     6    16    17    1
     7    18    16    1
     8    18    19    1
     9    19    20    1
    10    20    21    1
    11    21    22    1
    12    22    23   ar
    13    23    24   ar
    14    24    25   ar
    15    25    26   ar
    16    26    27   ar
    17     4     5   ar
    18     5     6   ar
    19     6     8    1
    20     8     9    1
    21     9    10    1
    22    10    11    1
    23    11    12    1
    24    11    13    1
    25    13    14    1
    26     6     7   ar
    27     7     2   ar
    28    27    18    1
    29    14     8    1
    30    27    22   ar
@<TRIPOS>MOLECULE
*****
 27 30 0 0 0
SMALL
GASTEIGER

@<TRIPOS>ATOM
      1 C         137.5722  137.7009  166.9084 C.3     1  UNL1        0.0737
      2 C         138.2715  138.9422  166.4394 C.ar    1  UNL1        0.1406
      3 N         139.0814  139.7567  167.4041 N.ar    1  UNL1       -0.2335
      4 C         139.7807  140.9980  166.9351 C.ar    1  UNL1        0.0793
      5 C         139.6701  141.4250  165.5013 C.ar    1  UNL1        0.0504
      6 C         138.8602  140.6105  164.5366 C.ar    1  UNL1        0.1343
      7 N         138.1608  139.3691  165.0057 N.ar    1  UNL1       -0.2160
      8 N         138.7495  141.0374  163.1029 N.pl3   1  UNL1       -0.2903
      9 C         138.2567  142.4134  162.7660 C.3     1  UNL1        0.1095
     10 C         138.1461  142.8403  161.3322 C.3     1  UNL1        0.0939
     11 N         138.5283  141.8911  160.2355 N.3     1  UNL1       -0.2686
     12 C         138.4176  142.3180  158.8018 C.3     1  UNL1        0.0897
     13 C         139.0211  140.5150  160.5724 C.3     1  UNL1        0.0939
     14 C         139.1317  140.0881  162.0061 C.3     1  UNL1        0.1095
     15 C         140.5906  141.8125  167.8998 C.3     1  UNL1        0.1191
     16 N         142.0689  141.5862  168.0159 N.3     1  UNL1       -0.2628
     17 C         142.8389  142.2194  169.1367 C.3     1  UNL1        0.0902
     18 C         142.7772  140.7267  167.0112 C.3     1  UNL1        0.0981
     19 C         142.8345  139.2402  167.2035 C.3     1  UNL1        0.0224
     20 C         143.5428  138.3806  166.1988 C.3     1  UNL1        0.0065
     21 C         144.1939  139.0075  165.0017 C.3     1  UNL1        0.0277
     22 C         144.1367  140.4941  164.8093 C.ar    1  UNL1       -0.0073
     23 C         144.7878  141.1210  163.6123 C.ar    1  UNL1       -0.0015
     24 C         144.7306  142.6075  163.4200 C.ar    1  UNL1        0.0203
     25 C         144.0223  143.4671  164.4247 C.ar    1  UNL1        0.0985
     26 N         143.3712  142.8402  165.6217 N.ar    1  UNL1       -0.2471
     27 C         143.4284  141.3537  165.8141 C.ar    1  UNL1        0.0695
@<TRIPOS>BOND
     1     1     2    1
     2     2     3   ar
     3     3     4   ar
     4     4    15    1
     5    15    16    1
     6    16    17    1
     7    18    16    1
     8    18    19    1
     9    19    20    1
    10    20    21    1
    11    21    22    1
    12    22    23   ar
    13    23    24   ar
    14    24    25   ar
    15    25    26   ar
    16    26    27   ar
    17     4     5   ar
    18     5     6   ar
    19     6     8    1
    20     8     9    1
    21     9    10    1
    22    10    11    1
    23    11    12    1
    24    11    13    1
    25    13    14    1
    26     6     7   ar
    27     7     2   ar
    28    27    18    1
    29    14     8    1
    30    27    22   ar
@<TRIPOS>MOLECULE
*****
 27 30 0 0 0
SMALL
GASTEIGER

@<TRIPOS>ATOM
      1 C         138.2420  144.6547  165.1581 C.3     1  UNL1        0.0737
      2 C         139.5459  143.9198  165.0606 C.ar    1  UNL1        0.1406
      3 N         140.1358  143.2737  166.2790 N.ar    1  UNL1       -0.2335
      4 C         141.4397  142.5389  166.1815 C.ar    1  UNL1        0.0793
      5 C         142.1540  142.4501  164.8653 C.ar    1  UNL1        0.0504
      6 C         141.5642  143.0962  163.6469 C.ar    1  UNL1        0.1343
      7 N         140.2601  143.8311  163.7445 N.ar    1  UNL1       -0.2160
      8 N         142.2783  143.0074  162.3308 N.pl3   1  UNL1       -0.2903
      9 C         141.6909  143.6577  161.1134 C.3     1  UNL1        0.1095
     10 C         142.4052  143.5689  159.7973 C.3     1  UNL1        0.0939
     11 N         143.7067  142.8299  159.6987 N.3     1  UNL1       -0.2686
     12 C         144.4209  142.7411  158.3826 C.3     1  UNL1        0.0897
     13 C         144.2941  142.1796  160.9161 C.3     1  UNL1        0.0939
     14 C         143.5800  142.2684  162.2322 C.3     1  UNL1        0.1095
     15 C         142.0295  141.8928  167.3999 C.3     1  UNL1        0.1191
     16 N         141.7728  140.4412  167.6778 N.3     1  UNL1       -0.2628
     17 C         142.6221  139.7062  168.6720 C.3     1  UNL1        0.0902
     18 C         140.6666  139.7247  166.9615 C.3     1  UNL1        0.0981
     19 C         139.2783  139.7302  167.5294 C.3     1  UNL1        0.0224
     20 C         138.1722  139.0137  166.8131 C.3     1  UNL1        0.0065
     21 C         138.4544  138.2918  165.5289 C.3     1  UNL1        0.0277
     22 C         139.8427  138.2863  164.9610 C.ar    1  UNL1       -0.0073
     23 C         140.1249  137.5643  163.6768 C.ar    1  UNL1       -0.0015
     24 C         141.5132  137.5588  163.1090 C.ar    1  UNL1        0.0203
     25 C         142.6194  138.2753  163.8253 C.ar    1  UNL1        0.0985
     26 N         142.3372  138.9973  165.1094 N.ar    1  UNL1       -0.2471
     27 C         140.9489  139.0027  165.6773 C.ar    1  UNL1        0.0695
@<TRIPOS>BOND
     1     1     2    1
     2     2     3   ar
     3     3     4   ar
     4     4    15    1
     5    15    16    1
     6    16    17    1
     7    18    16    1
     8    18    19    1
     9    19    20    1
    10    20    21    1
    11    21    22    1
    12    22    23   ar
    13    23    24   ar
    14    24    25   ar
    15    25    26   ar
    16    26    27   ar
    17     4     5   ar
    18     5     6   ar
    19     6     8    1
    20     8     9    1
    21     9    10    1
    22    10    11    1
    23    11    12    1
    24    11    13    1
    25    13    14    1
    26     6     7   ar
    27     7     2   ar
    28    27    18    1
    29    14     8    1
    30    27    22   ar
@<TRIPOS>MOLECULE
*****
 27 30 0 0 0
SMALL
GASTEIGER

@<TRIPOS>ATOM
      1 C         144.1153  139.4933  161.4292 C.3     1  UNL1        0.0737
      2 C         143.6462  140.5745  162.3571 C.ar    1  UNL1        0.1406
      3 N         143.2774  141.9225  161.8123 N.ar    1  UNL1       -0.2335
      4 C         142.8084  143.0037  162.7401 C.ar    1  UNL1        0.0793
      5 C         142.7080  142.7369  164.2128 C.ar    1  UNL1        0.0504
      6 C         143.0768  141.3888  164.7576 C.ar    1  UNL1        0.1343
      7 N         143.5459  140.3076  163.8297 N.ar    1  UNL1       -0.2160
      8 N         142.9765  141.1220  166.2303 N.pl3   1  UNL1       -0.2903
      9 C         142.7238  139.7285  166.7245 C.3     1  UNL1        0.1095
     10 C         142.6235  139.4616  168.1972 C.3     1  UNL1        0.0939
     11 N         142.7759  140.5883  169.1756 N.3     1  UNL1       -0.2686
     12 C         142.6756  140.3214  170.6482 C.3     1  UNL1        0.0897
     13 C         143.0286  141.9818  168.6814 C.3     1  UNL1        0.0939
     14 C         143.1289  142.2487  167.2088 C.3     1  UNL1        0.1095
     15 C         142.4396  144.3518  162.1954 C.3     1  UNL1        0.1191
     16 N         141.0117  144.6566  161.8512 N.3     1  UNL1       -0.2628
     17 C         140.6892  145.4361  160.6109 C.3     1  UNL1        0.0902
     18 C         139.9065  144.1820  162.7474 C.3     1  UNL1        0.0981
     19 C         139.5316  144.9783  163.9620 C.3     1  UNL1        0.0224
     20 C         138.4263  144.5036  164.8583 C.3     1  UNL1        0.0065
     21 C         137.6960  143.2327  164.5399 C.3     1  UNL1        0.0277
     22 C         138.0710  142.4364  163.3252 C.ar    1  UNL1       -0.0073
     23 C         137.3407  141.1655  163.0068 C.ar    1  UNL1       -0.0015
     24 C         137.7156  140.3692  161.7922 C.ar    1  UNL1        0.0203
     25 C         138.8208  140.8438  160.8960 C.ar    1  UNL1        0.0985
     26 N         139.5511  142.1147  161.2144 N.ar    1  UNL1       -0.2471
     27 C         139.1762  142.9110  162.4290 C.ar    1  UNL1        0.0695
@<TRIPOS>BOND
     1     1     2    1
     2     2     3   ar
     3     3     4   ar
     4     4    15    1
     5    15    16    1
     6    16    17    1
     7    18    16    1
     8    18    19    1
     9    19    20    1
    10    20    21    1
    11    21    22    1
    12    22    23   ar
    13    23    24   ar
    14    24    25   ar
    15    25    26   ar
    16    26    27   ar
    17     4     5   ar
    18     5     6   ar
    19     6     8    1
    20     8     9    1
    21     9    10    1
    22    10    11    1
    23    11    12    1
    24    11    13    1
    25    13    14    1
    26     6     7   ar
    27     7     2   ar
    28    27    18    1
    29    14     8    1
    30    27    22   ar
@<TRIPOS>MOLECULE
*****
 27 30 0 0 0
SMALL
GASTEIGER

@<TRIPOS>ATOM
      1 C         143.6402  138.2387  162.1714 C.3     1  UNL1        0.0737
      2 C         142.3971  138.8397  162.7575 C.ar    1  UNL1        0.1406
      3 N         141.2950  139.3113  161.8559 N.ar    1  UNL1       -0.2335
      4 C         140.0520  139.9124  162.4419 C.ar    1  UNL1        0.0793
      5 C         139.9110  140.0419  163.9297 C.ar    1  UNL1        0.0504
      6 C         141.0131  139.5703  164.8314 C.ar    1  UNL1        0.1343
      7 N         142.2562  138.9692  164.2452 N.ar    1  UNL1       -0.2160
      8 N         140.8722  139.6998  166.3191 N.pl3   1  UNL1       -0.2903
      9 C         142.0859  139.6216  167.1970 C.3     1  UNL1        0.1095
     10 C         141.9450  139.7511  168.6848 C.3     1  UNL1        0.0939
     11 N         140.5903  139.9587  169.2946 N.3     1  UNL1       -0.2686
     12 C         140.4494  140.0882  170.7823 C.3     1  UNL1        0.0897
     13 C         139.3766  140.0370  168.4166 C.3     1  UNL1        0.0939
     14 C         139.5176  139.9075  166.9289 C.3     1  UNL1        0.1095
     15 C         138.9499  140.3840  161.5403 C.3     1  UNL1        0.1191
     16 N         138.7968  141.8466  161.2447 N.3     1  UNL1       -0.2628
     17 C         138.4915  142.3017  159.8484 C.3     1  UNL1        0.0902
     18 C         138.9490  142.8542  162.3455 C.3     1  UNL1        0.0981
     19 C         137.7772  143.1950  163.2176 C.3     1  UNL1        0.0224
     20 C         137.9294  144.2026  164.3183 C.3     1  UNL1        0.0065
     21 C         139.2535  144.8693  164.5470 C.3     1  UNL1        0.0277
     22 C         140.4254  144.5284  163.6749 C.ar    1  UNL1       -0.0073
     23 C         141.7495  145.1951  163.9035 C.ar    1  UNL1       -0.0015
     24 C         142.9213  144.8543  163.0315 C.ar    1  UNL1        0.0203
     25 C         142.7691  143.8467  161.9307 C.ar    1  UNL1        0.0985
     26 N         141.4450  143.1800  161.7020 N.ar    1  UNL1       -0.2471
     27 C         140.2732  143.5209  162.5741 C.ar    1  UNL1        0.0695
@<TRIPOS>BOND
     1     1     2    1
     2     2     3   ar
     3     3     4   ar
     4     4    15    1
     5    15    16    1
     6    16    17    1
     7    18    16    1
     8    18    19    1
     9    19    20    1
    10    20    21    1
    11    21    22    1
    12    22    23   ar
    13    23    24   ar
    14    24    25   ar
    15    25    26   ar
    16    26    27   ar
    17     4     5   ar
    18     5     6   ar
    19     6     8    1
    20     8     9    1
    21     9    10    1
    22    10    11    1
    23    11    12    1
    24    11    13    1
    25    13    14    1
    26     6     7   ar
    27     7     2   ar
    28    27    18    1
    29    14     8    1
    30    27    22   ar
@<TRIPOS>MOLECULE
*****
 27 30 0 0 0
SMALL
GASTEIGER

@<TRIPOS>ATOM
      1 C         138.8419  137.6132  163.2051 C.3     1  UNL1        0.0737
      2 C         139.1261  139.0223  163.6335 C.ar    1  UNL1        0.1406
      3 N         139.1613  140.1232  162.6152 N.ar    1  UNL1       -0.2335
      4 C         139.4456  141.5323  163.0436 C.ar    1  UNL1        0.0793
      5 C         139.6946  141.8406  164.4903 C.ar    1  UNL1        0.0504
      6 C         139.6594  140.7398  165.5086 C.ar    1  UNL1        0.1343
      7 N         139.3751  139.3306  165.0801 N.ar    1  UNL1       -0.2160
      8 N         139.9084  141.0480  166.9553 N.pl3   1  UNL1       -0.2903
      9 C         140.6025  142.3202  167.3424 C.3     1  UNL1        0.1095
     10 C         140.8515  142.6285  168.7892 C.3     1  UNL1        0.0939
     11 N         140.4064  141.6645  169.8487 N.3     1  UNL1       -0.2686
     12 C         140.6554  141.9728  171.2954 C.3     1  UNL1        0.0897
     13 C         139.7124  140.3924  169.4616 C.3     1  UNL1        0.0939
     14 C         139.4634  140.0841  168.0150 C.3     1  UNL1        0.1095
     15 C         139.4808  142.6331  162.0253 C.3     1  UNL1        0.1191
     16 N         140.7951  143.1123  161.4840 N.3     1  UNL1       -0.2628
     17 C         141.0329  143.1352  160.0032 C.3     1  UNL1        0.0902
     18 C         141.8717  143.5686  162.4236 C.3     1  UNL1        0.0981
     19 C         141.8304  144.9549  162.9951 C.3     1  UNL1        0.0224
     20 C         142.9069  145.4112  163.9347 C.3     1  UNL1        0.0065
     21 C         144.0247  144.4812  164.3029 C.3     1  UNL1        0.0277
     22 C         144.0661  143.0948  163.7315 C.ar    1  UNL1       -0.0073
     23 C         145.1839  142.1649  164.0997 C.ar    1  UNL1       -0.0015
     24 C         145.2251  140.7786  163.5283 C.ar    1  UNL1        0.0203
     25 C         144.1486  140.3223  162.5886 C.ar    1  UNL1        0.0985
     26 N         143.0308  141.2523  162.2204 N.ar    1  UNL1       -0.2471
     27 C         142.9895  142.6386  162.7918 C.ar    1  UNL1        0.0695
@<TRIPOS>BOND
     1     1     2    1
     2     2     3   ar
     3     3     4   ar
     4     4    15    1
     5    15    16    1
     6    16    17    1
     7    18    16    1
     8    18    19    1
     9    19    20    1
    10    20    21    1
    11    21    22    1
    12    22    23   ar
    13    23    24   ar
    14    24    25   ar
    15    25    26   ar
    16    26    27   ar
    17     4     5   ar
    18     5     6   ar
    19     6     8    1
    20     8     9    1
    21     9    10    1
    22    10    11    1
    23    11    12    1
    24    11    13    1
    25    13    14    1
    26     6     7   ar
    27     7     2   ar
    28    27    18    1
    29    14     8    1
    30    27    22   ar
@<TRIPOS>MOLECULE
*****
 27 30 0 0 0
SMALL
GASTEIGER

@<TRIPOS>ATOM
      1 C         137.9006  139.7645  162.6618 C.3     1  UNL1        0.0737
      2 C         138.5211  140.8365  163.5077 C.ar    1  UNL1        0.1406
      3 N         138.4096  142.2748  163.0967 N.ar    1  UNL1       -0.2335
      4 C         139.0300  143.3468  163.9426 C.ar    1  UNL1        0.0793
      5 C         139.7620  142.9807  165.1997 C.ar    1  UNL1        0.0504
      6 C         139.8735  141.5424  165.6108 C.ar    1  UNL1        0.1343
      7 N         139.2530  140.4703  164.7647 N.ar    1  UNL1       -0.2160
      8 N         140.6054  141.1762  166.8678 N.pl3   1  UNL1       -0.2903
      9 C         139.9278  140.3421  167.9143 C.3     1  UNL1        0.1095
     10 C         140.6598  139.9759  169.1714 C.3     1  UNL1        0.0939
     11 N         142.0694  140.4438  169.3819 N.3     1  UNL1       -0.2686
     12 C         142.8013  140.0775  170.6389 C.3     1  UNL1        0.0897
     13 C         142.7469  141.2778  168.3353 C.3     1  UNL1        0.0939
     14 C         142.0150  141.6440  167.0783 C.3     1  UNL1        0.1095
     15 C         138.9185  144.7851  163.5316 C.3     1  UNL1        0.1191
     16 N         139.9362  145.3813  162.6047 N.3     1  UNL1       -0.2628
     17 C         139.5214  146.4161  161.6012 C.3     1  UNL1        0.0902
     18 C         141.3685  144.9426  162.6815 C.3     1  UNL1        0.0981
     19 C         142.2433  145.4299  163.7982 C.3     1  UNL1        0.0224
     20 C         143.6757  144.9913  163.8750 C.3     1  UNL1        0.0065
     21 C         144.2333  144.0653  162.8350 C.3     1  UNL1        0.0277
     22 C         143.3585  143.5780  161.7181 C.ar    1  UNL1       -0.0073
     23 C         143.9160  142.6520  160.6781 C.ar    1  UNL1       -0.0015
     24 C         143.0412  142.1648  159.5613 C.ar    1  UNL1        0.0203
     25 C         141.6089  142.6034  159.4846 C.ar    1  UNL1        0.0985
     26 N         141.0513  143.5294  160.5246 N.ar    1  UNL1       -0.2471
     27 C         141.9261  144.0166  161.6414 C.ar    1  UNL1        0.0695
@<TRIPOS>BOND
     1     1     2    1
     2     2     3   ar
     3     3     4   ar
     4     4    15    1
     5    15    16    1
     6    16    17    1
     7    18    16    1
     8    18    19    1
     9    19    20    1
    10    20    21    1
    11    21    22    1
    12    22    23   ar
    13    23    24   ar
    14    24    25   ar
    15    25    26   ar
    16    26    27   ar
    17     4     5   ar
    18     5     6   ar
    19     6     8    1
    20     8     9    1
    21     9    10    1
    22    10    11    1
    23    11    12    1
    24    11    13    1
    25    13    14    1
    26     6     7   ar
    27     7     2   ar
    28    27    18    1
    29    14     8    1
    30    27    22   ar
@<TRIPOS>MOLECULE
*****
 27 30 0 0 0
SMALL
GASTEIGER

@<TRIPOS>ATOM
      1 C         138.3240  137.8747  165.9335 C.3     1  UNL1        0.0737
      2 C         138.6814  138.8740  164.8736 C.ar    1  UNL1        0.1406
      3 N         138.3153  140.3179  165.0501 N.ar    1  UNL1       -0.2335
      4 C         138.6727  141.3172  163.9901 C.ar    1  UNL1        0.0793
      5 C         139.3961  140.8727  162.7535 C.ar    1  UNL1        0.0504
      6 C         139.7622  139.4288  162.5770 C.ar    1  UNL1        0.1343
      7 N         139.4048  138.4295  163.6371 N.ar    1  UNL1       -0.2160
      8 N         140.4856  138.9842  161.3405 N.pl3   1  UNL1       -0.2903
      9 C         141.8549  138.3815  161.4485 C.3     1  UNL1        0.1095
     10 C         142.5783  137.9369  160.2119 C.3     1  UNL1        0.0939
     11 N         141.9324  138.0951  158.8674 N.3     1  UNL1       -0.2686
     12 C         142.6559  137.6505  157.6309 C.3     1  UNL1        0.0897
     13 C         140.5631  138.6979  158.7594 C.3     1  UNL1        0.0939
     14 C         139.8397  139.1424  159.9959 C.3     1  UNL1        0.1095
     15 C         138.3066  142.7611  164.1667 C.3     1  UNL1        0.1191
     16 N         139.1417  143.6446  165.0455 N.3     1  UNL1       -0.2628
     17 C         138.6345  144.9978  165.4473 C.3     1  UNL1        0.0902
     18 C         140.4840  143.1747  165.5223 C.3     1  UNL1        0.0981
     19 C         140.6048  142.4560  166.8333 C.3     1  UNL1        0.0224
     20 C         141.9472  141.9861  167.3102 C.3     1  UNL1        0.0065
     21 C         143.1687  142.2350  166.4760 C.3     1  UNL1        0.0277
     22 C         143.0480  142.9538  165.1650 C.ar    1  UNL1       -0.0073
     23 C         144.2695  143.2027  164.3308 C.ar    1  UNL1       -0.0015
     24 C         144.1487  143.9214  163.0198 C.ar    1  UNL1        0.0203
     25 C         142.8064  144.3913  162.5430 C.ar    1  UNL1        0.0985
     26 N         141.5849  144.1424  163.3771 N.ar    1  UNL1       -0.2471
     27 C         141.7056  143.4237  164.6881 C.ar    1  UNL1        0.0695
@<TRIPOS>BOND
     1     1     2    1
     2     2     3   ar
     3     3     4   ar
     4     4    15    1
     5    15    16    1
     6    16    17    1
     7    18    16    1
     8    18    19    1
     9    19    20    1
    10    20    21    1
    11    21    22    1
    12    22    23   ar
    13    23    24   ar
    14    24    25   ar
    15    25    26   ar
    16    26    27   ar
    17     4     5   ar
    18     5     6   ar
    19     6     8    1
    20     8     9    1
    21     9    10    1
    22    10    11    1
    23    11    12    1
    24    11    13    1
    25    13    14    1
    26     6     7   ar
    27     7     2   ar
    28    27    18    1
    29    14     8    1
    30    27    22   ar
@<TRIPOS>MOLECULE
*****
 27 30 0 0 0
SMALL
GASTEIGER

@<TRIPOS>ATOM
      1 C         138.4679  145.0268  165.6819 C.3     1  UNL1        0.0737
      2 C         139.3129  144.1969  164.7615 C.ar    1  UNL1        0.1406
      3 N         140.4106  143.3403  165.3194 N.ar    1  UNL1       -0.2335
      4 C         141.2556  142.5104  164.3990 C.ar    1  UNL1        0.0793
      5 C         141.0029  142.5370  162.9207 C.ar    1  UNL1        0.0504
      6 C         139.9051  143.3935  162.3628 C.ar    1  UNL1        0.1343
      7 N         139.0601  144.2235  163.2832 N.ar    1  UNL1       -0.2160
      8 N         139.6523  143.4201  160.8845 N.pl3   1  UNL1       -0.2903
      9 C         140.3625  144.4192  160.0200 C.3     1  UNL1        0.1095
     10 C         140.1097  144.4458  158.5417 C.3     1  UNL1        0.0939
     11 N         139.1467  143.4733  157.9279 N.3     1  UNL1       -0.2686
     12 C         138.8940  143.4999  156.4496 C.3     1  UNL1        0.0897
     13 C         138.4365  142.4741  158.7923 C.3     1  UNL1        0.0939
     14 C         138.6893  142.4475  160.2706 C.3     1  UNL1        0.1095
     15 C         142.3534  141.6538  164.9569 C.3     1  UNL1        0.1191
     16 N         142.0814  140.2213  165.3092 N.3     1  UNL1       -0.2628
     17 C         143.1092  139.1688  165.0164 C.3     1  UNL1        0.0902
     18 C         140.7816  139.8414  165.9544 C.3     1  UNL1        0.0981
     19 C         139.7460  139.0916  165.1701 C.3     1  UNL1        0.0224
     20 C         138.4462  138.7117  165.8152 C.3     1  UNL1        0.0065
     21 C         138.1820  139.0816  167.2446 C.3     1  UNL1        0.0277
     22 C         139.2176  139.8315  168.0290 C.ar    1  UNL1       -0.0073
     23 C         138.9535  140.2014  169.4584 C.ar    1  UNL1       -0.0015
     24 C         139.9891  140.9513  170.2427 C.ar    1  UNL1        0.0203
     25 C         141.2889  141.3312  169.5976 C.ar    1  UNL1        0.0985
     26 N         141.5531  140.9612  168.1682 N.ar    1  UNL1       -0.2471
     27 C         140.5174  140.2114  167.3839 C.ar    1  UNL1        0.0695
@<TRIPOS>BOND
     1     1     2    1
     2     2     3   ar
     3     3     4   ar
     4     4    15    1
     5    15    16    1
     6    16    17    1
     7    18    16    1
     8    18    19    1
     9    19    20    1
    10    20    21    1
    11    21    22    1
    12    22    23   ar
    13    23    24   ar
    14    24    25   ar
    15    25    26   ar
    16    26    27   ar
    17     4     5   ar
    18     5     6   ar
    19     6     8    1
    20     8     9    1
    21     9    10    1
    22    10    11    1
    23    11    12    1
    24    11    13    1
    25    13    14    1
    26     6     7   ar
    27     7     2   ar
    28    27    18    1
    29    14     8    1
    30    27    22   ar
