@<TRIPOS>MOLECULE
*****
 29 32 0 0 0
SMALL
GASTEIGER

@<TRIPOS>ATOM
      1 O         142.9470  139.8748  168.3580 O.2     1  UNL1       -0.2722
      2 C         142.7358  139.4757  166.9276 C.2     1  UNL1        0.2532
      3 N         141.4622  139.8445  166.2262 N.am    1  UNL1       -0.2676
      4 C         141.1112  139.5162  164.8053 C.3     1  UNL1        0.1206
      5 C         139.7481  140.0752  164.5235 C.2     1  UNL1       -0.0024
      6 C         139.2566  140.7491  165.7703 C.2     1  UNL1       -0.0047
      7 C         140.3159  140.6065  166.8226 C.3     1  UNL1        0.1204
      8 C         139.0065  139.9775  163.2232 C.ar    1  UNL1        0.0271
      9 C         138.8729  141.1851  162.3435 C.ar    1  UNL1        0.0316
     10 C         138.1314  141.0874  161.0433 C.ar    1  UNL1        0.1403
     11 F         137.9977  142.2950  160.1635 F       1  UNL1       -0.2042
     12 C         137.5235  139.7822  160.6228 C.ar    1  UNL1        0.0319
     13 C         137.6572  138.5746  161.5025 C.ar    1  UNL1        0.0319
     14 C         138.3987  138.6723  162.8027 C.ar    1  UNL1        0.1400
     15 F         138.5323  137.4647  163.6825 F       1  UNL1       -0.2042
     16 C         140.2421  141.1334  168.2251 C.ar    1  UNL1        0.0029
     17 C         139.8905  140.2116  169.3550 C.ar    1  UNL1       -0.0021
     18 C         139.8167  140.7385  170.7575 C.ar    1  UNL1        0.0028
     19 C         140.0944  142.1871  171.0300 C.ar    1  UNL1        0.0366
     20 C         140.4460  143.1089  169.9001 C.ar    1  UNL1        0.1334
     21 O         140.7238  144.5575  170.1726 O.3     1  UNL1       -0.5055
     22 C         140.5199  142.5820  168.4976 C.ar    1  UNL1        0.0343
     23 H         140.6776  144.8867  171.0487 H       1  UNL1        0.2922
     24 C         143.7982  138.7077  166.1985 C.3     1  UNL1        0.1867
     25 O         144.3194  137.4222  166.7693 O.3     1  UNL1       -0.3758
     26 H         143.8673  137.2332  167.6064 H       1  UNL1        0.2110
     27 C         144.3393  139.2253  164.8988 C.3     1  UNL1        0.0359
     28 C         144.4090  139.1582  163.4019 C.3     1  UNL1        0.0030
     29 C         145.2070  140.1887  164.1445 C.3     1  UNL1        0.0030
@<TRIPOS>BOND
     1     1     2    2
     2     2    24    1
     3    24    25    1
     4    24    27    1
     5    27    28    1
     6    28    29    1
     7     2     3   am
     8     3     4    1
     9     4     5    1
    10     5     8    1
    11     8     9   ar
    12     9    10   ar
    13    10    11    1
    14    10    12   ar
    15    12    13   ar
    16    13    14   ar
    17    14    15    1
    18     5     6    2
    19     6     7    1
    20     7    16    1
    21    16    17   ar
    22    17    18   ar
    23    18    19   ar
    24    19    20   ar
    25    20    21    1
    26    20    22   ar
    27    29    27    1
    28     7     3    1
    29    22    16   ar
    30    14     8   ar
    31    25    26    1
    32    21    23    1
@<TRIPOS>MOLECULE
*****
 29 32 0 0 0
SMALL
GASTEIGER

@<TRIPOS>ATOM
      1 O         143.7562  142.7807  167.6224 O.2     1  UNL1       -0.2722
      2 C         143.3225  142.4691  166.2207 C.2     1  UNL1        0.2532
      3 N         142.1376  141.5807  165.9822 N.am    1  UNL1       -0.2676
      4 C         141.5895  141.1824  164.6439 C.3     1  UNL1        0.1206
      5 C         140.4059  140.2903  164.8747 C.2     1  UNL1       -0.0024
      6 C         140.2226  140.1372  166.3556 C.2     1  UNL1       -0.0047
      7 C         141.2928  140.9347  167.0401 C.3     1  UNL1        0.1204
      8 C         139.5550  139.6615  163.8113 C.ar    1  UNL1        0.0271
      9 C         138.9006  140.5197  162.7696 C.ar    1  UNL1        0.0316
     10 C         138.0498  139.8910  161.7062 C.ar    1  UNL1        0.1403
     11 F         137.3954  140.7492  160.6644 F       1  UNL1       -0.2042
     12 C         137.8534  138.4040  161.6846 C.ar    1  UNL1        0.0319
     13 C         138.5078  137.5459  162.7263 C.ar    1  UNL1        0.0319
     14 C         139.3586  138.1746  163.7897 C.ar    1  UNL1        0.1400
     15 F         140.0131  137.3164  164.8315 F       1  UNL1       -0.2042
     16 C         141.4846  141.0636  168.5221 C.ar    1  UNL1        0.0029
     17 C         140.6200  142.0014  169.3115 C.ar    1  UNL1       -0.0021
     18 C         140.8118  142.1303  170.7936 C.ar    1  UNL1        0.0028
     19 C         141.8682  141.3214  171.4863 C.ar    1  UNL1        0.0366
     20 C         142.7327  140.3837  170.6969 C.ar    1  UNL1        0.1334
     21 O         143.7891  139.5748  171.3896 O.3     1  UNL1       -0.5055
     22 C         142.5410  140.2548  169.2148 C.ar    1  UNL1        0.0343
     23 H         143.9089  139.6553  172.3154 H       1  UNL1        0.2922
     24 C         144.0737  143.0458  165.0575 C.3     1  UNL1        0.1867
     25 O         144.0153  144.5194  164.7833 O.3     1  UNL1       -0.3758
     26 H         143.4533  144.9496  165.4466 H       1  UNL1        0.2110
     27 C         144.8833  142.1490  164.1685 C.3     1  UNL1        0.0359
     28 C         145.5861  141.9010  162.8667 C.3     1  UNL1        0.0030
     29 C         145.5829  140.8436  163.9306 C.3     1  UNL1        0.0030
@<TRIPOS>BOND
     1     1     2    2
     2     2    24    1
     3    24    25    1
     4    24    27    1
     5    27    28    1
     6    28    29    1
     7     2     3   am
     8     3     4    1
     9     4     5    1
    10     5     8    1
    11     8     9   ar
    12     9    10   ar
    13    10    11    1
    14    10    12   ar
    15    12    13   ar
    16    13    14   ar
    17    14    15    1
    18     5     6    2
    19     6     7    1
    20     7    16    1
    21    16    17   ar
    22    17    18   ar
    23    18    19   ar
    24    19    20   ar
    25    20    21    1
    26    20    22   ar
    27    29    27    1
    28     7     3    1
    29    22    16   ar
    30    14     8   ar
    31    25    26    1
    32    21    23    1
@<TRIPOS>MOLECULE
*****
 29 32 0 0 0
SMALL
GASTEIGER

@<TRIPOS>ATOM
      1 O         139.9471  139.6864  168.1901 O.2     1  UNL1       -0.2722
      2 C         139.5576  139.8769  166.7542 C.2     1  UNL1        0.2532
      3 N         140.0197  141.0924  166.0066 N.am    1  UNL1       -0.2676
      4 C         139.7116  141.4171  164.5749 C.3     1  UNL1        0.1206
      5 C         140.3726  142.7220  164.2429 C.2     1  UNL1       -0.0024
      6 C         141.0892  143.2039  165.4694 C.2     1  UNL1       -0.0047
      7 C         140.8711  142.1968  166.5594 C.3     1  UNL1        0.1204
      8 C         140.3253  143.4222  162.9171 C.ar    1  UNL1        0.0271
      9 C         139.8777  144.8517  162.8395 C.ar    1  UNL1        0.0316
     10 C         139.8304  145.5518  161.5138 C.ar    1  UNL1        0.1403
     11 F         139.3828  146.9814  161.4361 F       1  UNL1       -0.2042
     12 C         140.2307  144.8224  160.2657 C.ar    1  UNL1        0.0319
     13 C         140.6783  143.3929  160.3433 C.ar    1  UNL1        0.0319
     14 C         140.7256  142.6928  161.6690 C.ar    1  UNL1        0.1400
     15 F         141.1731  141.2631  161.7467 F       1  UNL1       -0.2042
     16 C         141.4099  142.2795  167.9569 C.ar    1  UNL1        0.0029
     17 C         142.8873  142.1847  168.1980 C.ar    1  UNL1       -0.0021
     18 C         143.4260  142.2673  169.5954 C.ar    1  UNL1        0.0028
     19 C         142.4873  142.4448  170.7518 C.ar    1  UNL1        0.0366
     20 C         141.0098  142.5396  170.5107 C.ar    1  UNL1        0.1334
     21 O         140.0710  142.7171  171.6671 O.3     1  UNL1       -0.5055
     22 C         140.4711  142.4570  169.1133 C.ar    1  UNL1        0.0343
     23 H         140.4075  142.7688  172.5401 H       1  UNL1        0.2922
     24 C         138.7059  138.8518  166.0658 C.3     1  UNL1        0.1867
     25 O         137.3572  138.5020  166.6212 O.3     1  UNL1       -0.3758
     26 H         137.1913  139.0251  167.4211 H       1  UNL1        0.2110
     27 C         139.2030  138.1766  164.8220 C.3     1  UNL1        0.0359
     28 C         140.2976  137.4755  164.0734 C.3     1  UNL1        0.0030
     29 C         138.9693  137.7080  163.4164 C.3     1  UNL1        0.0030
@<TRIPOS>BOND
     1     1     2    2
     2     2    24    1
     3    24    25    1
     4    24    27    1
     5    27    28    1
     6    28    29    1
     7     2     3   am
     8     3     4    1
     9     4     5    1
    10     5     8    1
    11     8     9   ar
    12     9    10   ar
    13    10    11    1
    14    10    12   ar
    15    12    13   ar
    16    13    14   ar
    17    14    15    1
    18     5     6    2
    19     6     7    1
    20     7    16    1
    21    16    17   ar
    22    17    18   ar
    23    18    19   ar
    24    19    20   ar
    25    20    21    1
    26    20    22   ar
    27    29    27    1
    28     7     3    1
    29    22    16   ar
    30    14     8   ar
    31    25    26    1
    32    21    23    1
@<TRIPOS>MOLECULE
*****
 29 32 0 0 0
SMALL
GASTEIGER

@<TRIPOS>ATOM
      1 O         142.4055  139.4116  167.5246 O.2     1  UNL1       -0.2722
      2 C         142.4177  139.8259  166.0830 C.2     1  UNL1        0.2532
      3 N         141.8163  141.1380  165.6746 N.am    1  UNL1       -0.2676
      4 C         141.7551  141.6833  164.2785 C.3     1  UNL1        0.1206
      5 C         141.0716  143.0174  164.3316 C.2     1  UNL1       -0.0024
      6 C         140.7103  143.2967  165.7605 C.2     1  UNL1       -0.0047
      7 C         141.1706  142.1351  166.5905 C.3     1  UNL1        0.1204
      8 C         140.7974  143.9148  163.1613 C.ar    1  UNL1        0.0271
      9 C         141.5560  143.7301  161.8806 C.ar    1  UNL1        0.0316
     10 C         141.2818  144.6275  160.7104 C.ar    1  UNL1        0.1403
     11 F         142.0405  144.4428  159.4296 F       1  UNL1       -0.2042
     12 C         140.2490  145.7096  160.8209 C.ar    1  UNL1        0.0319
     13 C         139.4903  145.8943  162.1016 C.ar    1  UNL1        0.0319
     14 C         139.7645  144.9970  163.2718 C.ar    1  UNL1        0.1400
     15 F         139.0058  145.1817  164.5526 F       1  UNL1       -0.2042
     16 C         141.0128  141.9952  168.0756 C.ar    1  UNL1        0.0029
     17 C         139.8522  141.2291  168.6376 C.ar    1  UNL1       -0.0021
     18 C         139.6944  141.0892  170.1227 C.ar    1  UNL1        0.0028
     19 C         140.6974  141.7154  171.0457 C.ar    1  UNL1        0.0366
     20 C         141.8580  142.4816  170.4837 C.ar    1  UNL1        0.1334
     21 O         142.8609  143.1079  171.4067 O.3     1  UNL1       -0.5055
     22 C         142.0157  142.6215  168.9986 C.ar    1  UNL1        0.0343
     23 H         142.7624  143.0205  172.3344 H       1  UNL1        0.2922
     24 C         143.0312  138.9280  165.0499 C.3     1  UNL1        0.1867
     25 O         144.5188  138.9119  164.8584 O.3     1  UNL1       -0.3758
     26 H         144.9312  139.5349  165.4771 H       1  UNL1        0.2110
     27 C         142.1571  138.0463  164.2082 C.3     1  UNL1        0.0359
     28 C         141.6432  137.6315  162.8614 C.3     1  UNL1        0.0030
     29 C         141.1570  136.9339  164.0971 C.3     1  UNL1        0.0030
@<TRIPOS>BOND
     1     1     2    2
     2     2    24    1
     3    24    25    1
     4    24    27    1
     5    27    28    1
     6    28    29    1
     7     2     3   am
     8     3     4    1
     9     4     5    1
    10     5     8    1
    11     8     9   ar
    12     9    10   ar
    13    10    11    1
    14    10    12   ar
    15    12    13   ar
    16    13    14   ar
    17    14    15    1
    18     5     6    2
    19     6     7    1
    20     7    16    1
    21    16    17   ar
    22    17    18   ar
    23    18    19   ar
    24    19    20   ar
    25    20    21    1
    26    20    22   ar
    27    29    27    1
    28     7     3    1
    29    22    16   ar
    30    14     8   ar
    31    25    26    1
    32    21    23    1
@<TRIPOS>MOLECULE
*****
 29 32 0 0 0
SMALL
GASTEIGER

@<TRIPOS>ATOM
      1 O         140.0275  140.8541  161.7931 O.2     1  UNL1       -0.2722
      2 C         139.5696  141.1390  163.1928 C.2     1  UNL1        0.2532
      3 N         140.4970  140.9033  164.3479 N.am    1  UNL1       -0.2676
      4 C         140.1812  141.1411  165.7949 C.3     1  UNL1        0.1206
      5 C         141.3920  140.7732  166.6001 C.2     1  UNL1       -0.0024
      6 C         142.4562  140.3081  165.6508 C.2     1  UNL1       -0.0047
      7 C         141.9031  140.3885  164.2589 C.3     1  UNL1        0.1204
      8 C         141.5168  140.8559  168.0927 C.ar    1  UNL1        0.0271
      9 C         140.5672  140.0932  168.9681 C.ar    1  UNL1        0.0316
     10 C         140.6921  140.1759  170.4606 C.ar    1  UNL1        0.1403
     11 F         139.7424  139.4131  171.3361 F       1  UNL1       -0.2042
     12 C         141.7665  141.0214  171.0777 C.ar    1  UNL1        0.0319
     13 C         142.7161  141.7841  170.2022 C.ar    1  UNL1        0.0319
     14 C         142.5913  141.7014  168.7098 C.ar    1  UNL1        0.1400
     15 F         143.5409  142.4642  167.8342 F       1  UNL1       -0.2042
     16 C         142.6286  140.0190  162.9991 C.ar    1  UNL1        0.0029
     17 C         143.3965  141.0620  162.2424 C.ar    1  UNL1       -0.0021
     18 C         144.1220  140.6925  160.9826 C.ar    1  UNL1        0.0028
     19 C         144.0797  139.2800  160.4796 C.ar    1  UNL1        0.0366
     20 C         143.3118  138.2370  161.2363 C.ar    1  UNL1        0.1334
     21 O         143.2694  136.8246  160.7332 O.3     1  UNL1       -0.5055
     22 C         142.5863  138.6065  162.4960 C.ar    1  UNL1        0.0343
     23 H         143.7226  136.5937  159.9462 H       1  UNL1        0.2922
     24 C         138.1842  141.6596  163.4373 C.3     1  UNL1        0.1867
     25 O         137.0155  140.7196  163.4180 O.3     1  UNL1       -0.3758
     26 H         137.3275  139.8196  163.2349 H       1  UNL1        0.2110
     27 C         137.9677  143.1203  163.7011 C.3     1  UNL1        0.0359
     28 C         137.7709  144.5172  163.1914 C.3     1  UNL1        0.0030
     29 C         137.7893  144.2533  164.6679 C.3     1  UNL1        0.0030
@<TRIPOS>BOND
     1     1     2    2
     2     2    24    1
     3    24    25    1
     4    24    27    1
     5    27    28    1
     6    28    29    1
     7     2     3   am
     8     3     4    1
     9     4     5    1
    10     5     8    1
    11     8     9   ar
    12     9    10   ar
    13    10    11    1
    14    10    12   ar
    15    12    13   ar
    16    13    14   ar
    17    14    15    1
    18     5     6    2
    19     6     7    1
    20     7    16    1
    21    16    17   ar
    22    17    18   ar
    23    18    19   ar
    24    19    20   ar
    25    20    21    1
    26    20    22   ar
    27    29    27    1
    28     7     3    1
    29    22    16   ar
    30    14     8   ar
    31    25    26    1
    32    21    23    1
@<TRIPOS>MOLECULE
*****
 29 32 0 0 0
SMALL
GASTEIGER

@<TRIPOS>ATOM
      1 O         140.2624  143.2671  167.5556 O.2     1  UNL1       -0.2722
      2 C         140.3183  142.9887  166.0828 C.2     1  UNL1        0.2532
      3 N         140.9943  141.7480  165.5791 N.am    1  UNL1       -0.2676
      4 C         141.1282  141.3383  164.1424 C.3     1  UNL1        0.1206
      5 C         141.8717  140.0362  164.0990 C.2     1  UNL1       -0.0024
      6 C         142.1974  139.6413  165.5090 C.2     1  UNL1       -0.0047
      7 C         141.6552  140.6992  166.4238 C.3     1  UNL1        0.1204
      8 C         142.2272  139.2646  162.8628 C.ar    1  UNL1        0.0271
      9 C         141.2035  139.0608  161.7856 C.ar    1  UNL1        0.0316
     10 C         141.5590  138.2892  160.5494 C.ar    1  UNL1        0.1403
     11 F         140.5352  138.0854  159.4721 F       1  UNL1       -0.2042
     12 C         142.9382  137.7213  160.3905 C.ar    1  UNL1        0.0319
     13 C         143.9619  137.9251  161.4677 C.ar    1  UNL1        0.0319
     14 C         143.6064  138.6967  162.7038 C.ar    1  UNL1        0.1400
     15 F         144.6302  138.9005  163.7811 F       1  UNL1       -0.2042
     16 C         141.7560  140.7070  167.9203 C.ar    1  UNL1        0.0029
     17 C         142.9334  141.3522  168.5894 C.ar    1  UNL1       -0.0021
     18 C         143.0342  141.3600  170.0859 C.ar    1  UNL1        0.0028
     19 C         141.9577  140.7226  170.9135 C.ar    1  UNL1        0.0366
     20 C         140.7803  140.0774  170.2444 C.ar    1  UNL1        0.1334
     21 O         139.7038  139.4400  171.0720 O.3     1  UNL1       -0.5055
     22 C         140.6795  140.0696  168.7479 C.ar    1  UNL1        0.0343
     23 H         139.7668  139.4449  172.0068 H       1  UNL1        0.2922
     24 C         139.6983  143.9511  165.1136 C.3     1  UNL1        0.1867
     25 O         138.2114  144.1488  165.1004 O.3     1  UNL1       -0.3758
     26 H         137.8041  143.5835  165.7752 H       1  UNL1        0.2110
     27 C         140.5651  144.7158  164.1576 C.3     1  UNL1        0.0359
     28 C         140.7299  145.4676  162.8701 C.3     1  UNL1        0.0030
     29 C         141.9017  145.2884  163.7893 C.3     1  UNL1        0.0030
@<TRIPOS>BOND
     1     1     2    2
     2     2    24    1
     3    24    25    1
     4    24    27    1
     5    27    28    1
     6    28    29    1
     7     2     3   am
     8     3     4    1
     9     4     5    1
    10     5     8    1
    11     8     9   ar
    12     9    10   ar
    13    10    11    1
    14    10    12   ar
    15    12    13   ar
    16    13    14   ar
    17    14    15    1
    18     5     6    2
    19     6     7    1
    20     7    16    1
    21    16    17   ar
    22    17    18   ar
    23    18    19   ar
    24    19    20   ar
    25    20    21    1
    26    20    22   ar
    27    29    27    1
    28     7     3    1
    29    22    16   ar
    30    14     8   ar
    31    25    26    1
    32    21    23    1
@<TRIPOS>MOLECULE
*****
 29 32 0 0 0
SMALL
GASTEIGER

@<TRIPOS>ATOM
      1 O         139.7957  140.0476  168.3072 O.2     1  UNL1       -0.2722
      2 C         139.5004  140.0380  166.8366 C.2     1  UNL1        0.2532
      3 N         139.9884  141.1581  165.9663 N.am    1  UNL1       -0.2676
      4 C         139.7714  141.2843  164.4875 C.3     1  UNL1        0.1206
      5 C         140.4280  142.5527  164.0293 C.2     1  UNL1       -0.0024
      6 C         141.0508  143.2105  165.2249 C.2     1  UNL1       -0.0047
      7 C         140.7791  142.3485  166.4221 C.3     1  UNL1        0.1204
      8 C         140.4568  143.0723  162.6224 C.ar    1  UNL1        0.0271
      9 C         140.9921  142.2124  161.5161 C.ar    1  UNL1        0.0316
     10 C         141.0208  142.7320  160.1093 C.ar    1  UNL1        0.1403
     11 F         141.5562  141.8721  159.0029 F       1  UNL1       -0.2042
     12 C         140.5142  144.1115  159.8088 C.ar    1  UNL1        0.0319
     13 C         139.9789  144.9714  160.9150 C.ar    1  UNL1        0.0319
     14 C         139.9502  144.4518  162.3218 C.ar    1  UNL1        0.1400
     15 F         139.4148  145.3118  163.4282 F       1  UNL1       -0.2042
     16 C         141.2206  142.6279  167.8282 C.ar    1  UNL1        0.0029
     17 C         140.2921  143.3184  168.7826 C.ar    1  UNL1       -0.0021
     18 C         140.7335  143.5978  170.1887 C.ar    1  UNL1        0.0028
     19 C         142.1036  143.1867  170.6403 C.ar    1  UNL1        0.0366
     20 C         143.0322  142.4962  169.6858 C.ar    1  UNL1        0.1334
     21 O         144.4022  142.0851  170.1373 O.3     1  UNL1       -0.5055
     22 C         142.5907  142.2168  168.2797 C.ar    1  UNL1        0.0343
     23 H         144.6780  142.2597  171.0156 H       1  UNL1        0.2922
     24 C         138.7171  138.9084  166.2363 C.3     1  UNL1        0.1867
     25 O         137.3625  138.5629  166.7801 O.3     1  UNL1       -0.3758
     26 H         137.1452  139.1620  167.5113 H       1  UNL1        0.2110
     27 C         139.2883  138.1244  165.0922 C.3     1  UNL1        0.0359
     28 C         139.1637  137.5794  163.7003 C.3     1  UNL1        0.0030
     29 C         140.4024  137.3113  164.5025 C.3     1  UNL1        0.0030
@<TRIPOS>BOND
     1     1     2    2
     2     2    24    1
     3    24    25    1
     4    24    27    1
     5    27    28    1
     6    28    29    1
     7     2     3   am
     8     3     4    1
     9     4     5    1
    10     5     8    1
    11     8     9   ar
    12     9    10   ar
    13    10    11    1
    14    10    12   ar
    15    12    13   ar
    16    13    14   ar
    17    14    15    1
    18     5     6    2
    19     6     7    1
    20     7    16    1
    21    16    17   ar
    22    17    18   ar
    23    18    19   ar
    24    19    20   ar
    25    20    21    1
    26    20    22   ar
    27    29    27    1
    28     7     3    1
    29    22    16   ar
    30    14     8   ar
    31    25    26    1
    32    21    23    1
@<TRIPOS>MOLECULE
*****
 29 32 0 0 0
SMALL
GASTEIGER

@<TRIPOS>ATOM
      1 O         140.3551  142.4209  161.8456 O.2     1  UNL1       -0.2722
      2 C         140.6865  143.0218  163.1795 C.2     1  UNL1        0.2532
      3 N         140.5635  142.1958  164.4255 N.am    1  UNL1       -0.2676
      4 C         140.8582  142.6575  165.8220 C.3     1  UNL1        0.1206
      5 C         140.6010  141.5102  166.7534 C.2     1  UNL1       -0.0024
      6 C         140.1473  140.3395  165.9327 C.2     1  UNL1       -0.0047
      7 C         140.1241  140.7632  164.4939 C.3     1  UNL1        0.1204
      8 C         140.7682  141.5301  168.2440 C.ar    1  UNL1        0.0271
      9 C         141.8182  142.3997  168.8694 C.ar    1  UNL1        0.0316
     10 C         141.9853  142.4196  170.3599 C.ar    1  UNL1        0.1403
     11 F         143.0353  143.2892  170.9854 F       1  UNL1       -0.2042
     12 C         141.1023  141.5698  171.2250 C.ar    1  UNL1        0.0319
     13 C         140.0523  140.7002  170.5996 C.ar    1  UNL1        0.0319
     14 C         139.8852  140.6804  169.1091 C.ar    1  UNL1        0.1400
     15 F         138.8352  139.8107  168.4836 F       1  UNL1       -0.2042
     16 C         139.7307  139.9050  163.3283 C.ar    1  UNL1        0.0029
     17 C         140.6834  138.8733  162.8011 C.ar    1  UNL1       -0.0021
     18 C         140.2900  138.0151  161.6355 C.ar    1  UNL1        0.0028
     19 C         138.9438  138.1887  160.9971 C.ar    1  UNL1        0.0366
     20 C         137.9911  139.2204  161.5242 C.ar    1  UNL1        0.1334
     21 O         136.6449  139.3939  160.8858 O.3     1  UNL1       -0.5055
     22 C         138.3845  140.0785  162.6899 C.ar    1  UNL1        0.0343
     23 H         136.3991  138.8578  160.1576 H       1  UNL1        0.2922
     24 C         141.1408  144.4486  163.2672 C.3     1  UNL1        0.1867
     25 O         140.1378  145.5612  163.1900 O.3     1  UNL1       -0.3758
     26 H         139.2486  145.1881  163.0844 H       1  UNL1        0.2110
     27 C         142.5983  144.7628  163.4321 C.3     1  UNL1        0.0359
     28 C         143.9864  144.8221  162.8669 C.3     1  UNL1        0.0030
     29 C         143.7344  145.2477  164.2830 C.3     1  UNL1        0.0030
@<TRIPOS>BOND
     1     1     2    2
     2     2    24    1
     3    24    25    1
     4    24    27    1
     5    27    28    1
     6    28    29    1
     7     2     3   am
     8     3     4    1
     9     4     5    1
    10     5     8    1
    11     8     9   ar
    12     9    10   ar
    13    10    11    1
    14    10    12   ar
    15    12    13   ar
    16    13    14   ar
    17    14    15    1
    18     5     6    2
    19     6     7    1
    20     7    16    1
    21    16    17   ar
    22    17    18   ar
    23    18    19   ar
    24    19    20   ar
    25    20    21    1
    26    20    22   ar
    27    29    27    1
    28     7     3    1
    29    22    16   ar
    30    14     8   ar
    31    25    26    1
    32    21    23    1
@<TRIPOS>MOLECULE
*****
 29 32 0 0 0
SMALL
GASTEIGER

@<TRIPOS>ATOM
      1 O         142.1846  142.2264  161.2034 O.2     1  UNL1       -0.2722
      2 C         142.0201  142.9944  162.4813 C.2     1  UNL1        0.2532
      3 N         141.8894  142.2631  163.7844 N.am    1  UNL1       -0.2676
      4 C         141.7199  142.8923  165.1354 C.3     1  UNL1        0.1206
      5 C         141.6309  141.7922  166.1512 C.2     1  UNL1       -0.0024
      6 C         141.7454  140.4830  165.4279 C.2     1  UNL1       -0.0047
      7 C         141.9051  140.7740  163.9651 C.3     1  UNL1        0.1204
      8 C         141.4579  141.9699  167.6306 C.ar    1  UNL1        0.0271
      9 C         140.1403  141.6554  168.2747 C.ar    1  UNL1        0.0316
     10 C         139.9673  141.8332  169.7541 C.ar    1  UNL1        0.1403
     11 F         138.6496  141.5187  170.3983 F       1  UNL1       -0.2042
     12 C         141.1119  142.3255  170.5892 C.ar    1  UNL1        0.0319
     13 C         142.4295  142.6400  169.9451 C.ar    1  UNL1        0.0319
     14 C         142.6025  142.4622  168.4658 C.ar    1  UNL1        0.1400
     15 F         143.9201  142.7767  167.8216 F       1  UNL1       -0.2042
     16 C         142.0543  139.7550  162.8746 C.ar    1  UNL1        0.0029
     17 C         140.8493  139.2920  162.1107 C.ar    1  UNL1       -0.0021
     18 C         140.9985  138.2730  161.0202 C.ar    1  UNL1        0.0028
     19 C         142.3528  137.7169  160.6936 C.ar    1  UNL1        0.0366
     20 C         143.5579  138.1799  161.4575 C.ar    1  UNL1        0.1334
     21 O         144.9122  137.6239  161.1309 O.3     1  UNL1       -0.5055
     22 C         143.4086  139.1989  162.5480 C.ar    1  UNL1        0.0343
     23 H         145.0054  136.9873  160.4496 H       1  UNL1        0.2922
     24 C         141.9864  144.4938  162.4561 C.3     1  UNL1        0.1867
     25 O         143.2675  145.2734  162.4885 O.3     1  UNL1       -0.3758
     26 H         144.0183  144.6603  162.5246 H       1  UNL1        0.2110
     27 C         140.6716  145.2136  162.3986 C.3     1  UNL1        0.0359
     28 C         139.2537  145.3678  162.8630 C.3     1  UNL1        0.0030
     29 C         139.8123  146.3060  161.8344 C.3     1  UNL1        0.0030
@<TRIPOS>BOND
     1     1     2    2
     2     2    24    1
     3    24    25    1
     4    24    27    1
     5    27    28    1
     6    28    29    1
     7     2     3   am
     8     3     4    1
     9     4     5    1
    10     5     8    1
    11     8     9   ar
    12     9    10   ar
    13    10    11    1
    14    10    12   ar
    15    12    13   ar
    16    13    14   ar
    17    14    15    1
    18     5     6    2
    19     6     7    1
    20     7    16    1
    21    16    17   ar
    22    17    18   ar
    23    18    19   ar
    24    19    20   ar
    25    20    21    1
    26    20    22   ar
    27    29    27    1
    28     7     3    1
    29    22    16   ar
    30    14     8   ar
    31    25    26    1
    32    21    23    1
