@<TRIPOS>MOLECULE
*****
 17 19 0 0 0
SMALL
GASTEIGER

@<TRIPOS>ATOM
      1 C         144.0389  139.1436  164.9721 C.3     1  UNL1        0.0896
      2 N         142.5757  138.9698  165.2526 N.3     1  UNL1       -0.2712
      3 C         141.6828  137.9203  164.6598 C.3     1  UNL1        0.0725
      4 C         140.3037  138.1168  165.2160 C.3     1  UNL1        0.0210
      5 C         138.8996  137.5896  165.1934 C.3     1  UNL1        0.0018
      6 C         138.0723  138.4347  166.1160 C.3     1  UNL1        0.0004
      7 C         138.9651  139.4842  166.7089 C.3     1  UNL1        0.0054
      8 C         140.3442  139.2877  166.1527 C.3     1  UNL1        0.0349
      9 C         141.7483  139.8149  166.1753 C.3     1  UNL1        0.0762
     10 C         140.3847  140.4587  167.0893 C.ar    1  UNL1       -0.0206
     11 C         140.3126  141.8555  166.5473 C.ar    1  UNL1       -0.0033
     12 C         140.3531  143.0264  167.4841 C.ar    1  UNL1        0.0119
     13 C         140.4657  142.8004  168.9626 C.ar    1  UNL1        0.0682
     14 CL        140.5062  143.9714  169.8993 Cl      1  UNL1       -0.0814
     15 C         140.5378  141.4036  169.5046 C.ar    1  UNL1        0.0679
     16 CL        140.6504  141.1778  170.9832 Cl      1  UNL1       -0.0814
     17 C         140.4973  140.2327  168.5679 C.ar    1  UNL1        0.0080
@<TRIPOS>BOND
     1     1     2    1
     2     2     3    1
     3     4     3    1
     4     4     5    1
     5     5     6    1
     6     6     7    1
     7     7     8    1
     8     8    10    1
     9    10    11   ar
    10    11    12   ar
    11    12    13   ar
    12    13    14    1
    13    13    15   ar
    14    15    16    1
    15    15    17   ar
    16     8     9    1
    17     9     2    1
    18     8     4    1
    19    17    10   ar
@<TRIPOS>MOLECULE
*****
 17 19 0 0 0
SMALL
GASTEIGER

@<TRIPOS>ATOM
      1 C         139.0758  138.3586  165.2667 C.3     1  UNL1        0.0896
      2 N         139.0251  139.8573  165.2350 N.3     1  UNL1       -0.2712
      3 C         138.0811  140.6906  164.4198 C.3     1  UNL1        0.0725
      4 C         138.3821  142.1343  164.6940 C.3     1  UNL1        0.0210
      5 C         137.9847  143.5415  164.3596 C.3     1  UNL1        0.0018
      6 C         138.8692  144.4702  165.1376 C.3     1  UNL1        0.0004
      7 C         139.8133  143.6369  165.9528 C.3     1  UNL1        0.0054
      8 C         139.5122  142.1933  165.6786 C.3     1  UNL1        0.0349
      9 C         139.9096  140.7861  166.0130 C.3     1  UNL1        0.0762
     10 C         140.6423  142.2522  166.6632 C.ar    1  UNL1       -0.0206
     11 C         142.0610  142.1752  166.1821 C.ar    1  UNL1       -0.0033
     12 C         143.1910  142.2342  167.1668 C.ar    1  UNL1        0.0119
     13 C         142.9024  142.3701  168.6325 C.ar    1  UNL1        0.0682
     14 CL        144.0325  142.4291  169.6171 Cl      1  UNL1       -0.0814
     15 C         141.4837  142.4471  169.1135 C.ar    1  UNL1        0.0679
     16 CL        141.1951  142.5831  170.5792 Cl      1  UNL1       -0.0814
     17 C         140.3537  142.3882  168.1288 C.ar    1  UNL1        0.0080
@<TRIPOS>BOND
     1     1     2    1
     2     2     3    1
     3     4     3    1
     4     4     5    1
     5     5     6    1
     6     6     7    1
     7     7     8    1
     8     8    10    1
     9    10    11   ar
    10    11    12   ar
    11    12    13   ar
    12    13    14    1
    13    13    15   ar
    14    15    16    1
    15    15    17   ar
    16     8     9    1
    17     9     2    1
    18     8     4    1
    19    17    10   ar
@<TRIPOS>MOLECULE
*****
 17 19 0 0 0
SMALL
GASTEIGER

@<TRIPOS>ATOM
      1 C         138.3026  139.9464  165.2770 C.3     1  UNL1        0.0896
      2 N         139.3359  139.9850  166.3634 N.3     1  UNL1       -0.2712
      3 C         139.0928  139.7278  167.8211 C.3     1  UNL1        0.0725
      4 C         140.4005  139.8713  168.5416 C.3     1  UNL1        0.0210
      5 C         141.0584  139.8010  169.8878 C.3     1  UNL1        0.0018
      6 C         142.5165  140.1035  169.7074 C.3     1  UNL1        0.0004
      7 C         142.7598  140.3607  168.2498 C.3     1  UNL1        0.0054
      8 C         141.4520  140.2172  167.5293 C.3     1  UNL1        0.0349
      9 C         140.7941  140.2874  166.1831 C.3     1  UNL1        0.0762
     10 C         142.5034  140.5630  166.5169 C.ar    1  UNL1       -0.0206
     11 C         143.1111  139.4855  165.6686 C.ar    1  UNL1       -0.0033
     12 C         144.1625  139.8315  164.6562 C.ar    1  UNL1        0.0119
     13 C         144.6063  141.2549  164.4923 C.ar    1  UNL1        0.0682
     14 CL        145.6577  141.6008  163.4799 Cl      1  UNL1       -0.0814
     15 C         143.9986  142.3324  165.3406 C.ar    1  UNL1        0.0679
     16 CL        144.4424  143.7558  165.1766 Cl      1  UNL1       -0.0814
     17 C         142.9472  141.9865  166.3530 C.ar    1  UNL1        0.0080
@<TRIPOS>BOND
     1     1     2    1
     2     2     3    1
     3     4     3    1
     4     4     5    1
     5     5     6    1
     6     6     7    1
     7     7     8    1
     8     8    10    1
     9    10    11   ar
    10    11    12   ar
    11    12    13   ar
    12    13    14    1
    13    13    15   ar
    14    15    16    1
    15    15    17   ar
    16     8     9    1
    17     9     2    1
    18     8     4    1
    19    17    10   ar
@<TRIPOS>MOLECULE
*****
 17 19 0 0 0
SMALL
GASTEIGER

@<TRIPOS>ATOM
      1 C         140.8106  138.4656  161.6113 C.3     1  UNL1        0.0896
      2 N         140.0537  138.4476  162.9061 N.3     1  UNL1       -0.2712
      3 C         139.5561  137.2256  163.6196 C.3     1  UNL1        0.0725
      4 C         138.8564  137.6712  164.8694 C.3     1  UNL1        0.0210
      5 C         138.1164  137.1913  166.0827 C.3     1  UNL1        0.0018
      6 C         137.7242  138.3922  166.8914 C.3     1  UNL1        0.0004
      7 C         138.2218  139.6142  166.1779 C.3     1  UNL1        0.0054
      8 C         138.9215  139.1686  164.9282 C.3     1  UNL1        0.0349
      9 C         139.6615  139.6485  163.7149 C.3     1  UNL1        0.0762
     10 C         138.9867  140.6660  164.9871 C.ar    1  UNL1       -0.0206
     11 C         139.8464  141.3395  166.0154 C.ar    1  UNL1       -0.0033
     12 C         139.9115  142.8370  166.0742 C.ar    1  UNL1        0.0119
     13 C         139.1170  143.6609  165.1047 C.ar    1  UNL1        0.0682
     14 CL        139.1821  145.1583  165.1636 Cl      1  UNL1       -0.0814
     15 C         138.2573  142.9874  164.0765 C.ar    1  UNL1        0.0679
     16 CL        137.4627  143.8114  163.1070 Cl      1  UNL1       -0.0814
     17 C         138.1921  141.4899  164.0177 C.ar    1  UNL1        0.0080
@<TRIPOS>BOND
     1     1     2    1
     2     2     3    1
     3     4     3    1
     4     4     5    1
     5     5     6    1
     6     6     7    1
     7     7     8    1
     8     8    10    1
     9    10    11   ar
    10    11    12   ar
    11    12    13   ar
    12    13    14    1
    13    13    15   ar
    14    15    16    1
    15    15    17   ar
    16     8     9    1
    17     9     2    1
    18     8     4    1
    19    17    10   ar
@<TRIPOS>MOLECULE
*****
 17 19 0 0 0
SMALL
GASTEIGER

@<TRIPOS>ATOM
      1 C         141.3187  142.0344  170.4672 C.3     1  UNL1        0.0896
      2 N         140.6189  141.4367  169.2828 N.3     1  UNL1       -0.2712
      3 C         139.7222  140.2343  169.3027 C.3     1  UNL1        0.0725
      4 C         139.2420  139.9909  167.9027 C.3     1  UNL1        0.0210
      5 C         138.3911  139.0973  167.0498 C.3     1  UNL1        0.0018
      6 C         138.4651  139.5969  165.6374 C.3     1  UNL1        0.0004
      7 C         139.3618  140.7992  165.6174 C.3     1  UNL1        0.0054
      8 C         139.8420  141.0427  167.0174 C.3     1  UNL1        0.0349
      9 C         140.6929  141.9363  167.8703 C.3     1  UNL1        0.0762
     10 C         140.4419  142.0946  166.1321 C.ar    1  UNL1       -0.0206
     11 C         139.5730  143.1696  165.5498 C.ar    1  UNL1       -0.0033
     12 C         140.1730  144.2215  164.6645 C.ar    1  UNL1        0.0119
     13 C         141.6419  144.1981  164.3616 C.ar    1  UNL1        0.0682
     14 CL        142.2418  145.2500  163.4764 Cl      1  UNL1       -0.0814
     15 C         142.5108  143.1231  164.9440 C.ar    1  UNL1        0.0679
     16 CL        143.9797  143.0998  164.6410 Cl      1  UNL1       -0.0814
     17 C         141.9108  142.0712  165.8292 C.ar    1  UNL1        0.0080
@<TRIPOS>BOND
     1     1     2    1
     2     2     3    1
     3     4     3    1
     4     4     5    1
     5     5     6    1
     6     6     7    1
     7     7     8    1
     8     8    10    1
     9    10    11   ar
    10    11    12   ar
    11    12    13   ar
    12    13    14    1
    13    13    15   ar
    14    15    16    1
    15    15    17   ar
    16     8     9    1
    17     9     2    1
    18     8     4    1
    19    17    10   ar
@<TRIPOS>MOLECULE
*****
 17 19 0 0 0
SMALL
GASTEIGER

@<TRIPOS>ATOM
      1 C         144.2674  141.6737  164.6406 C.3     1  UNL1        0.0896
      2 N         142.9642  142.4106  164.7316 N.3     1  UNL1       -0.2712
      3 C         142.4903  143.4829  163.7958 C.3     1  UNL1        0.0725
      4 C         141.1392  143.9396  164.2603 C.3     1  UNL1        0.0210
      5 C         140.0113  144.8846  163.9690 C.3     1  UNL1        0.0018
      6 C         138.9530  144.6787  165.0118 C.3     1  UNL1        0.0004
      7 C         139.4268  143.6064  165.9477 C.3     1  UNL1        0.0054
      8 C         140.7780  143.1496  165.4832 C.3     1  UNL1        0.0349
      9 C         141.9058  142.2046  165.7745 C.3     1  UNL1        0.0762
     10 C         140.4167  142.3597  166.7061 C.ar    1  UNL1       -0.0206
     11 C         139.9568  140.9382  166.5719 C.ar    1  UNL1       -0.0033
     12 C         139.5956  140.1483  167.7949 C.ar    1  UNL1        0.0119
     13 C         139.6943  140.7798  169.1519 C.ar    1  UNL1        0.0682
     14 CL        139.3331  139.9898  170.3747 Cl      1  UNL1       -0.0814
     15 C         140.1542  142.2012  169.2860 C.ar    1  UNL1        0.0679
     16 CL        140.2529  142.8327  170.6430 Cl      1  UNL1       -0.0814
     17 C         140.5155  142.9912  168.0630 C.ar    1  UNL1        0.0080
@<TRIPOS>BOND
     1     1     2    1
     2     2     3    1
     3     4     3    1
     4     4     5    1
     5     5     6    1
     6     6     7    1
     7     7     8    1
     8     8    10    1
     9    10    11   ar
    10    11    12   ar
    11    12    13   ar
    12    13    14    1
    13    13    15   ar
    14    15    16    1
    15    15    17   ar
    16     8     9    1
    17     9     2    1
    18     8     4    1
    19    17    10   ar
@<TRIPOS>MOLECULE
*****
 17 19 0 0 0
SMALL
GASTEIGER

@<TRIPOS>ATOM
      1 C         143.6564  142.6673  165.9455 C.3     1  UNL1        0.0896
      2 N         142.5646  142.0851  166.7933 N.3     1  UNL1       -0.2712
      3 C         142.3347  142.3646  168.2491 C.3     1  UNL1        0.0725
      4 C         141.1390  141.5733  168.6898 C.3     1  UNL1        0.0210
      5 C         140.2580  141.2570  169.8619 C.3     1  UNL1        0.0018
      6 C         139.2044  140.2930  169.4029 C.3     1  UNL1        0.0004
      7 C         139.4343  140.0135  167.9473 C.3     1  UNL1        0.0054
      8 C         140.6300  140.8047  167.5065 C.3     1  UNL1        0.0349
      9 C         141.5110  141.1210  166.3344 C.3     1  UNL1        0.0762
     10 C         140.1209  140.0362  166.3232 C.ar    1  UNL1       -0.0206
     11 C         138.8300  140.4327  165.6703 C.ar    1  UNL1       -0.0033
     12 C         138.3210  139.6641  164.4869 C.ar    1  UNL1        0.0119
     13 C         139.1030  138.4990  163.9566 C.ar    1  UNL1        0.0682
     14 CL        138.5939  137.7305  162.7733 Cl      1  UNL1       -0.0814
     15 C         140.3938  138.1025  164.6096 C.ar    1  UNL1        0.0679
     16 CL        141.1757  136.9375  164.0792 Cl      1  UNL1       -0.0814
     17 C         140.9028  138.8712  165.7929 C.ar    1  UNL1        0.0080
@<TRIPOS>BOND
     1     1     2    1
     2     2     3    1
     3     4     3    1
     4     4     5    1
     5     5     6    1
     6     6     7    1
     7     7     8    1
     8     8    10    1
     9    10    11   ar
    10    11    12   ar
    11    12    13   ar
    12    13    14    1
    13    13    15   ar
    14    15    16    1
    15    15    17   ar
    16     8     9    1
    17     9     2    1
    18     8     4    1
    19    17    10   ar
@<TRIPOS>MOLECULE
*****
 17 19 0 0 0
SMALL
GASTEIGER

@<TRIPOS>ATOM
      1 C         138.8352  138.6720  164.3451 C.3     1  UNL1        0.0896
      2 N         139.2066  139.4849  165.5497 N.3     1  UNL1       -0.2712
      3 C         138.8336  139.1779  166.9698 C.3     1  UNL1        0.0725
      4 C         139.4127  140.2509  167.8435 C.3     1  UNL1        0.0210
      5 C         139.5400  140.7243  169.2611 C.3     1  UNL1        0.0018
      6 C         140.3496  141.9870  169.2572 C.3     1  UNL1        0.0004
      7 C         140.7226  142.2941  167.8371 C.3     1  UNL1        0.0054
      8 C         140.1435  141.2211  166.9634 C.3     1  UNL1        0.0349
      9 C         140.0162  140.7477  165.5458 C.3     1  UNL1        0.0762
     10 C         140.8744  142.1913  166.0833 C.ar    1  UNL1       -0.0206
     11 C         140.1115  143.2329  165.3197 C.ar    1  UNL1       -0.0033
     12 C         140.8425  144.2030  164.4396 C.ar    1  UNL1        0.0119
     13 C         142.3362  144.1315  164.3231 C.ar    1  UNL1        0.0682
     14 CL        143.0671  145.1017  163.4430 Cl      1  UNL1       -0.0814
     15 C         143.0991  143.0899  165.0867 C.ar    1  UNL1        0.0679
     16 CL        144.5928  143.0185  164.9702 Cl      1  UNL1       -0.0814
     17 C         142.3681  142.1198  165.9668 C.ar    1  UNL1        0.0080
@<TRIPOS>BOND
     1     1     2    1
     2     2     3    1
     3     4     3    1
     4     4     5    1
     5     5     6    1
     6     6     7    1
     7     7     8    1
     8     8    10    1
     9    10    11   ar
    10    11    12   ar
    11    12    13   ar
    12    13    14    1
    13    13    15   ar
    14    15    16    1
    15    15    17   ar
    16     8     9    1
    17     9     2    1
    18     8     4    1
    19    17    10   ar
@<TRIPOS>MOLECULE
*****
 17 19 0 0 0
SMALL
GASTEIGER

@<TRIPOS>ATOM
      1 C         138.6104  138.8546  163.5907 C.3     1  UNL1        0.0896
      2 N         139.0662  139.7652  164.6920 N.3     1  UNL1       -0.2712
      3 C         139.3085  139.3708  166.1188 C.3     1  UNL1        0.0725
      4 C         139.7517  140.5920  166.8685 C.3     1  UNL1        0.0210
      5 C         140.1754  141.1030  168.2137 C.3     1  UNL1        0.0018
      6 C         140.4688  142.5680  168.0816 C.3     1  UNL1        0.0004
      7 C         140.2265  142.9626  166.6548 C.3     1  UNL1        0.0054
      8 C         139.7833  141.7413  165.9051 C.3     1  UNL1        0.0349
      9 C         139.3597  141.2304  164.5599 C.3     1  UNL1        0.0762
     10 C         139.8149  142.8906  164.9417 C.ar    1  UNL1       -0.0206
     11 C         138.5339  143.4412  164.3888 C.ar    1  UNL1       -0.0033
     12 C         138.5656  144.5905  163.4253 C.ar    1  UNL1        0.0119
     13 C         139.8783  145.1891  163.0148 C.ar    1  UNL1        0.0682
     14 CL        139.9099  146.3383  162.0514 Cl      1  UNL1       -0.0814
     15 C         141.1593  144.6384  163.5677 C.ar    1  UNL1        0.0679
     16 CL        142.4720  145.2370  163.1572 Cl      1  UNL1       -0.0814
     17 C         141.1276  143.4891  164.5312 C.ar    1  UNL1        0.0080
@<TRIPOS>BOND
     1     1     2    1
     2     2     3    1
     3     4     3    1
     4     4     5    1
     5     5     6    1
     6     6     7    1
     7     7     8    1
     8     8    10    1
     9    10    11   ar
    10    11    12   ar
    11    12    13   ar
    12    13    14    1
    13    13    15   ar
    14    15    16    1
    15    15    17   ar
    16     8     9    1
    17     9     2    1
    18     8     4    1
    19    17    10   ar
