@<TRIPOS>MOLECULE
*****
 28 29 0 0 0
SMALL
GASTEIGER

@<TRIPOS>ATOM
      1 C         138.9856  138.3245  162.4608 C.2     1  UNL1        0.2271
      2 O         137.6346  138.8300  162.0489 O.2     1  UNL1       -0.2747
      3 N         140.1751  138.5584  161.5774 N.am    1  UNL1       -0.3005
      4 H         141.0618  138.2266  161.8477 H       1  UNL1        0.1497
      5 C         140.0137  139.2977  160.2822 C.3     1  UNL1        0.1119
      6 C         139.8627  138.5370  158.9982 C.3     1  UNL1        0.0278
      7 C         140.0033  140.7976  160.2710 C.ar    1  UNL1        0.0770
      8 C         141.2842  141.5579  160.4475 C.ar    1  UNL1        0.0195
      9 C         141.2737  143.0579  160.4363 C.ar    1  UNL1        0.0398
     10 C         139.9823  143.7974  160.2487 C.ar    1  UNL1        0.1580
     11 C         138.7014  143.0372  160.0723 C.ar    1  UNL1        0.1353
     12 N         138.7118  141.5373  160.0835 N.ar    1  UNL1       -0.2433
     13 O         139.9719  145.2973  160.2375 O.3     1  UNL1       -0.4650
     14 C         139.6366  146.0544  161.4884 C.3     1  UNL1        0.3082
     15 C         139.7546  145.3840  162.8251 C.3     1  UNL1        0.4380
     16 F         139.8726  144.7137  164.1618 F       1  UNL1       -0.1663
     17 F         138.2794  145.1130  162.8194 F       1  UNL1       -0.1663
     18 F         141.2299  145.6551  162.8308 F       1  UNL1       -0.1663
     19 C         139.1469  137.5853  163.7559 C.3     1  UNL1        0.1113
     20 C         139.5174  139.8659  167.6174 C.ar    1  UNL1       -0.0225
     21 C         140.6589  139.8480  166.6445 C.ar    1  UNL1       -0.0046
     22 C         140.5354  139.0878  165.3573 C.ar    1  UNL1       -0.0041
     23 C         139.2704  138.3455  165.0431 C.ar    1  UNL1       -0.0131
     24 C         138.1290  138.3634  166.0160 C.ar    1  UNL1       -0.0041
     25 C         138.2525  139.1236  167.3032 C.ar    1  UNL1       -0.0046
     26 C         138.7149  140.3247  170.0455 C.3     1  UNL1        0.0047
     27 C         139.6409  140.6261  168.9046 C.3     1  UNL1        0.0224
     28 C         140.6905  141.6877  169.0510 C.3     1  UNL1        0.0047
@<TRIPOS>BOND
     1    26    27    1
     2    27    28    1
     3    27    20    1
     4    20    21   ar
     5    21    22   ar
     6    22    23   ar
     7    23    19    1
     8    19     1    1
     9     1     2    2
    10     1     3   am
    11     3     5    1
    12     5     6    1
    13     5     7    1
    14     7     8   ar
    15     8     9   ar
    16     9    10   ar
    17    10    13    1
    18    13    14    1
    19    14    15    1
    20    15    16    1
    21    15    17    1
    22    15    18    1
    23    10    11   ar
    24    11    12   ar
    25    23    24   ar
    26    24    25   ar
    27    25    20   ar
    28    12     7   ar
    29     3     4    1
@<TRIPOS>MOLECULE
*****
 28 29 0 0 0
SMALL
GASTEIGER

@<TRIPOS>ATOM
      1 C         138.9498  138.7326  165.0709 C.2     1  UNL1        0.2271
      2 O         139.9820  137.7119  164.6927 O.2     1  UNL1       -0.2747
      3 N         138.3068  139.5771  164.0111 N.am    1  UNL1       -0.3005
      4 H         137.6293  140.2470  164.2593 H       1  UNL1        0.1497
      5 C         138.6959  139.4011  162.5732 C.3     1  UNL1        0.1119
      6 C         137.9598  138.4181  161.7119 C.3     1  UNL1        0.0278
      7 C         139.8212  140.2080  161.9965 C.ar    1  UNL1        0.0770
      8 C         139.9568  141.6610  162.3435 C.ar    1  UNL1        0.0195
      9 C         141.0822  142.4679  161.7668 C.ar    1  UNL1        0.0398
     10 C         142.0718  141.8219  160.8431 C.ar    1  UNL1        0.1580
     11 C         141.9362  140.3689  160.4961 C.ar    1  UNL1        0.1353
     12 N         140.8109  139.5620  161.0728 N.ar    1  UNL1       -0.2433
     13 O         143.1971  142.6288  160.2665 O.3     1  UNL1       -0.4650
     14 C         144.6063  142.3785  160.7152 C.3     1  UNL1        0.3082
     15 C         144.9449  142.4097  162.1763 C.3     1  UNL1        0.4380
     16 F         145.2835  142.4409  163.6372 F       1  UNL1       -0.1663
     17 F         145.1294  140.9212  162.1652 F       1  UNL1       -0.1663
     18 F         144.7604  143.8983  162.1873 F       1  UNL1       -0.1663
     19 C         138.5607  138.9086  166.5088 C.3     1  UNL1        0.1113
     20 C         140.4817  142.1417  168.9800 C.ar    1  UNL1       -0.0225
     21 C         139.7015  141.0495  169.6496 C.ar    1  UNL1       -0.0046
     22 C         139.0612  139.9718  168.8259 C.ar    1  UNL1       -0.0041
     23 C         139.2010  139.9863  167.3325 C.ar    1  UNL1       -0.0131
     24 C         139.9812  141.0785  166.6629 C.ar    1  UNL1       -0.0041
     25 C         140.6215  142.1562  167.4866 C.ar    1  UNL1       -0.0046
     26 C         142.5370  143.0619  170.2757 C.3     1  UNL1        0.0047
     27 C         141.1220  143.2194  169.8037 C.3     1  UNL1        0.0224
     28 C         140.3472  144.4547  170.1556 C.3     1  UNL1        0.0047
@<TRIPOS>BOND
     1    26    27    1
     2    27    28    1
     3    27    20    1
     4    20    21   ar
     5    21    22   ar
     6    22    23   ar
     7    23    19    1
     8    19     1    1
     9     1     2    2
    10     1     3   am
    11     3     5    1
    12     5     6    1
    13     5     7    1
    14     7     8   ar
    15     8     9   ar
    16     9    10   ar
    17    10    13    1
    18    13    14    1
    19    14    15    1
    20    15    16    1
    21    15    17    1
    22    15    18    1
    23    10    11   ar
    24    11    12   ar
    25    23    24   ar
    26    24    25   ar
    27    25    20   ar
    28    12     7   ar
    29     3     4    1
@<TRIPOS>MOLECULE
*****
 28 29 0 0 0
SMALL
GASTEIGER

@<TRIPOS>ATOM
      1 C         136.4980  141.1614  156.1911 C.2     1  UNL1        0.2271
      2 O         137.3065  139.8986  156.1484 O.2     1  UNL1       -0.2747
      3 N         136.9340  142.3020  157.0624 N.am    1  UNL1       -0.3005
      4 H         136.4034  143.1308  157.0904 H       1  UNL1        0.1497
      5 C         138.1785  142.1797  157.8909 C.3     1  UNL1        0.1119
      6 C         139.5152  142.4950  157.2875 C.3     1  UNL1        0.0278
      7 C         138.0864  141.7423  159.3227 C.ar    1  UNL1        0.0770
      8 C         137.9236  140.2884  159.6537 C.ar    1  UNL1        0.0195
      9 C         137.8314  139.8509  161.0856 C.ar    1  UNL1        0.0398
     10 C         137.9020  140.8674  162.1863 C.ar    1  UNL1        0.1580
     11 C         138.0648  142.3213  161.8553 C.ar    1  UNL1        0.1353
     12 N         138.1569  142.7588  160.4235 N.ar    1  UNL1       -0.2433
     13 O         137.8099  140.4299  163.6181 O.3     1  UNL1       -0.4650
     14 C         138.9411  139.6696  164.2444 C.3     1  UNL1        0.3082
     15 C         138.6834  138.3432  164.8959 C.3     1  UNL1        0.4380
     16 F         138.4258  137.0169  165.5474 F       1  UNL1       -0.1663
     17 F         138.5434  139.0235  166.2254 F       1  UNL1       -0.1663
     18 F         138.8234  137.6629  163.5664 F       1  UNL1       -0.1663
     19 C         135.2536  141.2836  155.3627 C.3     1  UNL1        0.1113
     20 C         131.3132  139.8503  156.9963 C.ar    1  UNL1       -0.0225
     21 C         132.5964  139.2902  157.5343 C.ar    1  UNL1       -0.0046
     22 C         133.9099  139.7680  156.9897 C.ar    1  UNL1       -0.0041
     23 C         133.9401  140.8059  155.9072 C.ar    1  UNL1       -0.0131
     24 C         132.6568  141.3659  155.3692 C.ar    1  UNL1       -0.0041
     25 C         131.3434  140.8881  155.9137 C.ar    1  UNL1       -0.0046
     26 C         128.7197  139.9901  157.0611 C.3     1  UNL1        0.0047
     27 C         129.9997  139.3725  157.5408 C.3     1  UNL1        0.0224
     28 C         129.9662  138.2771  158.5650 C.3     1  UNL1        0.0047
@<TRIPOS>BOND
     1    26    27    1
     2    27    28    1
     3    27    20    1
     4    20    21   ar
     5    21    22   ar
     6    22    23   ar
     7    23    19    1
     8    19     1    1
     9     1     2    2
    10     1     3   am
    11     3     5    1
    12     5     6    1
    13     5     7    1
    14     7     8   ar
    15     8     9   ar
    16     9    10   ar
    17    10    13    1
    18    13    14    1
    19    14    15    1
    20    15    16    1
    21    15    17    1
    22    15    18    1
    23    10    11   ar
    24    11    12   ar
    25    23    24   ar
    26    24    25   ar
    27    25    20   ar
    28    12     7   ar
    29     3     4    1
@<TRIPOS>MOLECULE
*****
 28 29 0 0 0
SMALL
GASTEIGER

@<TRIPOS>ATOM
      1 C         140.0847  138.0214  162.6711 C.2     1  UNL1        0.2271
      2 O         138.5929  138.0680  162.5211 O.2     1  UNL1       -0.2747
      3 N         140.9631  138.6476  161.6288 N.am    1  UNL1       -0.3005
      4 H         141.9422  138.6170  161.7272 H       1  UNL1        0.1497
      5 C         140.3497  139.3204  160.4367 C.3     1  UNL1        0.1119
      6 C         139.8971  138.5019  159.2640 C.3     1  UNL1        0.0278
      7 C         140.1890  140.8116  160.4172 C.ar    1  UNL1        0.0770
      8 C         138.8297  141.4217  160.5900 C.ar    1  UNL1        0.0195
      9 C         138.6690  142.9130  160.5706 C.ar    1  UNL1        0.0398
     10 C         139.8676  143.7941  160.3783 C.ar    1  UNL1        0.1580
     11 C         141.2270  143.1839  160.2054 C.ar    1  UNL1        0.1353
     12 N         141.3877  141.6927  160.2249 N.ar    1  UNL1       -0.2433
     13 O         139.7069  145.2853  160.3588 O.3     1  UNL1       -0.4650
     14 C         139.7020  146.0560  161.6457 C.3     1  UNL1        0.3082
     15 C         139.9854  145.3546  162.9410 C.3     1  UNL1        0.4380
     16 F         140.2687  144.6533  164.2363 F       1  UNL1       -0.1663
     17 F         138.5172  145.1134  163.1316 F       1  UNL1       -0.1663
     18 F         141.4535  145.5958  162.7504 F       1  UNL1       -0.1663
     19 C         140.6980  137.3486  163.8632 C.3     1  UNL1        0.1113
     20 C         142.1124  139.8093  167.3552 C.ar    1  UNL1       -0.0225
     21 C         143.0808  138.9404  166.6089 C.ar    1  UNL1       -0.0046
     22 C         142.6093  138.1202  165.4448 C.ar    1  UNL1       -0.0041
     23 C         141.1695  138.1689  165.0272 C.ar    1  UNL1       -0.0131
     24 C         140.2011  139.0378  165.7736 C.ar    1  UNL1       -0.0041
     25 C         140.6726  139.8581  166.9376 C.ar    1  UNL1       -0.0046
     26 C         142.9874  142.0597  168.3146 C.3     1  UNL1        0.0047
     27 C         142.5839  140.6296  168.5193 C.3     1  UNL1        0.0224
     28 C         142.6517  140.0197  169.8880 C.3     1  UNL1        0.0047
@<TRIPOS>BOND
     1    26    27    1
     2    27    28    1
     3    27    20    1
     4    20    21   ar
     5    21    22   ar
     6    22    23   ar
     7    23    19    1
     8    19     1    1
     9     1     2    2
    10     1     3   am
    11     3     5    1
    12     5     6    1
    13     5     7    1
    14     7     8   ar
    15     8     9   ar
    16     9    10   ar
    17    10    13    1
    18    13    14    1
    19    14    15    1
    20    15    16    1
    21    15    17    1
    22    15    18    1
    23    10    11   ar
    24    11    12   ar
    25    23    24   ar
    26    24    25   ar
    27    25    20   ar
    28    12     7   ar
    29     3     4    1
@<TRIPOS>MOLECULE
*****
 28 29 0 0 0
SMALL
GASTEIGER

@<TRIPOS>ATOM
      1 C         140.3012  145.0878  161.0835 C.2     1  UNL1        0.2271
      2 O         139.2193  144.2805  160.4291 O.2     1  UNL1       -0.2747
      3 N         141.6168  145.2809  160.3893 N.am    1  UNL1       -0.3005
      4 H         142.3268  145.8107  160.8188 H       1  UNL1        0.1497
      5 C         141.8506  144.6669  159.0408 C.3     1  UNL1        0.1119
      6 C         141.6676  145.4898  157.8001 C.3     1  UNL1        0.0278
      7 C         142.2673  143.2300  158.9331 C.ar    1  UNL1        0.0770
      8 C         141.2279  142.1533  158.8307 C.ar    1  UNL1        0.0195
      9 C         141.6447  140.7163  158.7230 C.ar    1  UNL1        0.0398
     10 C         143.1007  140.3561  158.7177 C.ar    1  UNL1        0.1580
     11 C         144.1401  141.4328  158.8200 C.ar    1  UNL1        0.1353
     12 N         143.7234  142.8697  158.9278 N.ar    1  UNL1       -0.2433
     13 O         143.5174  138.9192  158.6099 O.3     1  UNL1       -0.4650
     14 C         142.8477  137.8785  159.4576 C.3     1  UNL1        0.3082
     15 C         142.9942  137.9188  160.9499 C.3     1  UNL1        0.4380
     16 F         143.1406  137.9590  162.4422 F       1  UNL1       -0.1663
     17 F         144.4633  138.1806  160.7987 F       1  UNL1       -0.1663
     18 F         141.5250  137.6569  161.1012 F       1  UNL1       -0.1663
     19 C         140.0674  145.7018  162.4319 C.3     1  UNL1        0.1113
     20 C         140.3301  143.1616  166.1371 C.ar    1  UNL1       -0.0225
     21 C         141.4494  143.1496  165.1386 C.ar    1  UNL1       -0.0046
     22 C         141.3618  143.9963  163.9035 C.ar    1  UNL1       -0.0041
     23 C         140.1549  144.8550  163.6670 C.ar    1  UNL1       -0.0131
     24 C         139.0356  144.8670  164.6654 C.ar    1  UNL1       -0.0041
     25 C         139.1232  144.0203  165.9005 C.ar    1  UNL1       -0.0046
     26 C         140.5811  142.9623  168.7153 C.3     1  UNL1        0.0047
     27 C         140.4176  142.3149  167.3721 C.3     1  UNL1        0.0224
     28 C         140.3418  140.8207  167.2641 C.3     1  UNL1        0.0047
@<TRIPOS>BOND
     1    26    27    1
     2    27    28    1
     3    27    20    1
     4    20    21   ar
     5    21    22   ar
     6    22    23   ar
     7    23    19    1
     8    19     1    1
     9     1     2    2
    10     1     3   am
    11     3     5    1
    12     5     6    1
    13     5     7    1
    14     7     8   ar
    15     8     9   ar
    16     9    10   ar
    17    10    13    1
    18    13    14    1
    19    14    15    1
    20    15    16    1
    21    15    17    1
    22    15    18    1
    23    10    11   ar
    24    11    12   ar
    25    23    24   ar
    26    24    25   ar
    27    25    20   ar
    28    12     7   ar
    29     3     4    1
@<TRIPOS>MOLECULE
*****
 28 29 0 0 0
SMALL
GASTEIGER

@<TRIPOS>ATOM
      1 C         140.1239  137.3267  156.2714 C.2     1  UNL1        0.2271
      2 O         138.6570  137.0151  156.2377 O.2     1  UNL1       -0.2747
      3 N         140.6482  138.3665  157.2170 N.am    1  UNL1       -0.3005
      4 H         141.6109  138.5710  157.2392 H       1  UNL1        0.1497
      5 C         139.7055  139.0946  158.1287 C.3     1  UNL1        0.1119
      6 C         138.8246  140.1801  157.5849 C.3     1  UNL1        0.0278
      7 C         139.6437  138.7373  159.5842 C.ar    1  UNL1        0.0770
      8 C         140.8893  138.3173  160.3069 C.ar    1  UNL1        0.0195
      9 C         140.8275  137.9599  161.7624 C.ar    1  UNL1        0.0398
     10 C         139.5202  138.0225  162.4952 C.ar    1  UNL1        0.1580
     11 C         138.2747  138.4425  161.7725 C.ar    1  UNL1        0.1353
     12 N         138.3364  138.7999  160.3171 N.ar    1  UNL1       -0.2433
     13 O         139.4585  137.6652  163.9507 O.3     1  UNL1       -0.4650
     14 C         138.9586  138.6674  164.9485 C.3     1  UNL1        0.3082
     15 C         138.1060  138.2196  166.0986 C.3     1  UNL1        0.4380
     16 F         137.2535  137.7719  167.2487 F       1  UNL1       -0.1663
     17 F         137.7694  139.6487  166.4054 F       1  UNL1       -0.1663
     18 F         138.4427  136.7905  165.7918 F       1  UNL1       -0.1663
     19 C         141.0665  136.5986  155.3597 C.3     1  UNL1        0.1113
     20 C         143.2447  132.9448  156.8279 C.ar    1  UNL1       -0.0225
     21 C         142.1692  132.8107  155.7910 C.ar    1  UNL1       -0.0046
     22 C         141.4432  134.0286  155.3016 C.ar    1  UNL1       -0.0041
     23 C         141.7926  135.3806  155.8491 C.ar    1  UNL1       -0.0131
     24 C         142.8681  135.5148  156.8860 C.ar    1  UNL1       -0.0041
     25 C         143.5942  134.2968  157.3754 C.ar    1  UNL1       -0.0046
     26 C         143.3383  130.3732  157.1856 C.3     1  UNL1        0.0047
     27 C         143.9708  131.7269  157.3173 C.3     1  UNL1        0.0224
     28 C         145.3294  131.8627  157.9383 C.3     1  UNL1        0.0047
@<TRIPOS>BOND
     1    26    27    1
     2    27    28    1
     3    27    20    1
     4    20    21   ar
     5    21    22   ar
     6    22    23   ar
     7    23    19    1
     8    19     1    1
     9     1     2    2
    10     1     3   am
    11     3     5    1
    12     5     6    1
    13     5     7    1
    14     7     8   ar
    15     8     9   ar
    16     9    10   ar
    17    10    13    1
    18    13    14    1
    19    14    15    1
    20    15    16    1
    21    15    17    1
    22    15    18    1
    23    10    11   ar
    24    11    12   ar
    25    23    24   ar
    26    24    25   ar
    27    25    20   ar
    28    12     7   ar
    29     3     4    1
@<TRIPOS>MOLECULE
*****
 28 29 0 0 0
SMALL
GASTEIGER

@<TRIPOS>ATOM
      1 C         140.1653  138.1893  162.3823 C.2     1  UNL1        0.2271
      2 O         141.2834  137.1912  162.3214 O.2     1  UNL1       -0.2747
      3 N         140.1329  139.3389  161.4192 N.am    1  UNL1       -0.3005
      4 H         139.3991  139.9940  161.4592 H       1  UNL1        0.1497
      5 C         141.2187  139.4903  160.3953 C.3     1  UNL1        0.1119
      6 C         142.3221  140.4827  160.6134 C.3     1  UNL1        0.0278
      7 C         141.2009  138.6494  159.1533 C.ar    1  UNL1        0.0770
      8 C         142.4683  138.0206  158.6552 C.ar    1  UNL1        0.0195
      9 C         142.4505  137.1797  157.4131 C.ar    1  UNL1        0.0398
     10 C         141.1653  136.9676  156.6693 C.ar    1  UNL1        0.1580
     11 C         139.8979  137.5964  157.1675 C.ar    1  UNL1        0.1353
     12 N         139.9156  138.4373  158.4095 N.ar    1  UNL1       -0.2433
     13 O         141.1476  136.1267  155.4274 O.3     1  UNL1       -0.4650
     14 C         142.2538  135.1472  155.1689 C.3     1  UNL1        0.3082
     15 C         142.3188  133.8667  155.9476 C.3     1  UNL1        0.4380
     16 F         142.3838  132.5862  156.7261 F       1  UNL1       -0.1663
     17 F         140.9475  133.5017  155.4618 F       1  UNL1       -0.1663
     18 F         143.6902  134.2317  156.4334 F       1  UNL1       -0.1663
     19 C         139.0797  138.0378  163.4061 C.3     1  UNL1        0.1113
     20 C         139.5837  139.8315  167.5023 C.ar    1  UNL1       -0.0225
     21 C         140.6523  140.0161  166.4660 C.ar    1  UNL1       -0.0046
     22 C         140.4843  139.4182  165.1006 C.ar    1  UNL1       -0.0041
     23 C         139.2477  138.6357  164.7715 C.ar    1  UNL1       -0.0131
     24 C         138.1790  138.4512  165.8078 C.ar    1  UNL1       -0.0041
     25 C         138.3470  139.0491  167.1732 C.ar    1  UNL1       -0.0046
     26 C         138.6719  140.2664  169.8959 C.3     1  UNL1        0.0047
     27 C         139.7517  140.4295  168.8677 C.3     1  UNL1        0.0224
     28 C         140.9996  141.1905  169.2048 C.3     1  UNL1        0.0047
@<TRIPOS>BOND
     1    26    27    1
     2    27    28    1
     3    27    20    1
     4    20    21   ar
     5    21    22   ar
     6    22    23   ar
     7    23    19    1
     8    19     1    1
     9     1     2    2
    10     1     3   am
    11     3     5    1
    12     5     6    1
    13     5     7    1
    14     7     8   ar
    15     8     9   ar
    16     9    10   ar
    17    10    13    1
    18    13    14    1
    19    14    15    1
    20    15    16    1
    21    15    17    1
    22    15    18    1
    23    10    11   ar
    24    11    12   ar
    25    23    24   ar
    26    24    25   ar
    27    25    20   ar
    28    12     7   ar
    29     3     4    1
@<TRIPOS>MOLECULE
*****
 28 29 0 0 0
SMALL
GASTEIGER

@<TRIPOS>ATOM
      1 C         142.9382  137.5051  156.8231 C.2     1  UNL1        0.2271
      2 O         144.2234  137.4762  156.0502 O.2     1  UNL1       -0.2747
      3 N         141.9557  136.3798  156.6870 N.am    1  UNL1       -0.3005
      4 H         141.1121  136.3988  157.1943 H       1  UNL1        0.1497
      5 C         142.2585  135.2257  155.7780 C.3     1  UNL1        0.1119
      6 C         141.9797  135.3354  154.3082 C.3     1  UNL1        0.0278
      7 C         142.8400  133.9618  156.3387 C.ar    1  UNL1        0.0770
      8 C         142.2316  132.6363  155.9882 C.ar    1  UNL1        0.0195
      9 C         142.8132  131.3724  156.5491 C.ar    1  UNL1        0.0398
     10 C         144.0030  131.4341  157.4603 C.ar    1  UNL1        0.1580
     11 C         144.6114  132.7596  157.8108 C.ar    1  UNL1        0.1353
     12 N         144.0298  134.0235  157.2501 N.ar    1  UNL1       -0.2433
     13 O         144.5845  130.1702  158.0211 O.3     1  UNL1       -0.4650
     14 C         143.8539  128.8707  157.8560 C.3     1  UNL1        0.3082
     15 C         143.0167  128.3330  158.9785 C.3     1  UNL1        0.4380
     16 F         142.1795  127.7954  160.1010 F       1  UNL1       -0.1663
     17 F         142.0520  127.7585  157.9839 F       1  UNL1       -0.1663
     18 F         143.9814  128.9075  159.9732 F       1  UNL1       -0.1663
     19 C         142.6354  138.6592  157.7321 C.3     1  UNL1        0.1113
     20 C         140.8856  137.9127  161.8102 C.ar    1  UNL1       -0.0225
     21 C         142.3557  137.7250  161.5790 C.ar    1  UNL1       -0.0046
     22 C         142.9390  137.9738  160.2197 C.ar    1  UNL1       -0.0041
     23 C         142.0521  138.4104  159.0915 C.ar    1  UNL1       -0.0131
     24 C         140.5820  138.5982  159.3226 C.ar    1  UNL1       -0.0041
     25 C         139.9987  138.3493  160.6820 C.ar    1  UNL1       -0.0046
     26 C         138.8240  137.7960  163.3870 C.3     1  UNL1        0.0047
     27 C         140.3023  137.6639  163.1695 C.3     1  UNL1        0.0224
     28 C         141.1972  137.2830  164.3114 C.3     1  UNL1        0.0047
@<TRIPOS>BOND
     1    26    27    1
     2    27    28    1
     3    27    20    1
     4    20    21   ar
     5    21    22   ar
     6    22    23   ar
     7    23    19    1
     8    19     1    1
     9     1     2    2
    10     1     3   am
    11     3     5    1
    12     5     6    1
    13     5     7    1
    14     7     8   ar
    15     8     9   ar
    16     9    10   ar
    17    10    13    1
    18    13    14    1
    19    14    15    1
    20    15    16    1
    21    15    17    1
    22    15    18    1
    23    10    11   ar
    24    11    12   ar
    25    23    24   ar
    26    24    25   ar
    27    25    20   ar
    28    12     7   ar
    29     3     4    1
@<TRIPOS>MOLECULE
*****
 28 29 0 0 0
SMALL
GASTEIGER

@<TRIPOS>ATOM
      1 C         140.0290  144.6640  162.6990 C.2     1  UNL1        0.2271
      2 O         140.3184  146.0760  162.2835 O.2     1  UNL1       -0.2747
      3 N         140.7299  143.5242  162.0211 N.am    1  UNL1       -0.3005
      4 H         140.5400  142.5974  162.2938 H       1  UNL1        0.1497
      5 C         141.7201  143.7963  160.9277 C.3     1  UNL1        0.1119
      6 C         143.1858  143.5967  161.1765 C.3     1  UNL1        0.0278
      7 C         141.2447  144.2681  159.5856 C.ar    1  UNL1        0.0770
      8 C         140.1121  143.5624  158.9006 C.ar    1  UNL1        0.0195
      9 C         139.6366  144.0342  157.5584 C.ar    1  UNL1        0.0398
     10 C         140.2937  145.2116  156.9013 C.ar    1  UNL1        0.1580
     11 C         141.4263  145.9173  157.5863 C.ar    1  UNL1        0.1353
     12 N         141.9018  145.4455  158.9284 N.ar    1  UNL1       -0.2433
     13 O         139.8183  145.6833  155.5592 O.3     1  UNL1       -0.4650
     14 C         140.4179  146.9109  154.9400 C.3     1  UNL1        0.3082
     15 C         139.5970  148.1588  154.8018 C.3     1  UNL1        0.4380
     16 F         138.7760  149.4065  154.6637 F       1  UNL1       -0.1663
     17 F         138.6063  147.6162  155.7888 F       1  UNL1       -0.1663
     18 F         140.5876  148.7013  153.8148 F       1  UNL1       -0.1663
     19 C         139.0388  144.3919  163.7923 C.3     1  UNL1        0.1113
     20 C         138.5222  140.2095  165.3705 C.ar    1  UNL1       -0.0225
     21 C         139.5325  141.1267  165.9934 C.ar    1  UNL1       -0.0046
     22 C         139.7047  142.5209  165.4673 C.ar    1  UNL1       -0.0041
     23 C         138.8666  142.9978  164.3184 C.ar    1  UNL1       -0.0131
     24 C         137.8563  142.0806  163.6955 C.ar    1  UNL1       -0.0041
     25 C         137.6841  140.6865  164.2216 C.ar    1  UNL1       -0.0046
     26 C         137.5726  138.5803  167.1576 C.3     1  UNL1        0.0047
     27 C         138.3500  138.8154  165.8966 C.3     1  UNL1        0.0224
     28 C         138.9553  137.6564  165.1616 C.3     1  UNL1        0.0047
@<TRIPOS>BOND
     1    26    27    1
     2    27    28    1
     3    27    20    1
     4    20    21   ar
     5    21    22   ar
     6    22    23   ar
     7    23    19    1
     8    19     1    1
     9     1     2    2
    10     1     3   am
    11     3     5    1
    12     5     6    1
    13     5     7    1
    14     7     8   ar
    15     8     9   ar
    16     9    10   ar
    17    10    13    1
    18    13    14    1
    19    14    15    1
    20    15    16    1
    21    15    17    1
    22    15    18    1
    23    10    11   ar
    24    11    12   ar
    25    23    24   ar
    26    24    25   ar
    27    25    20   ar
    28    12     7   ar
    29     3     4    1
