@<TRIPOS>MOLECULE
*****
 36 40 0 0 0
SMALL
GASTEIGER

@<TRIPOS>ATOM
      1 N         140.5435  138.6100  160.1475 N.3     1  UNL1       -0.2750
      2 C         139.7452  138.5706  158.8782 C.3     1  UNL1        0.0737
      3 C         140.3785  138.0831  157.6087 C.3     1  UNL1        0.0374
      4 C         141.8100  137.6352  157.6087 C.3     1  UNL1        0.0800
      5 C         142.6083  137.6746  158.8780 C.3     1  UNL1        0.0374
      6 C         141.9750  138.1621  160.1474 C.3     1  UNL1        0.0737
      7 C         140.5539  142.1862  164.6255 C.2     1  UNL1        0.2484
      8 O         139.5865  142.2951  165.7666 O.2     1  UNL1       -0.2699
      9 N         140.3393  141.1566  163.5560 N.am    1  UNL1       -0.2760
     10 C         141.3068  141.0478  162.4148 C.3     1  UNL1        0.0950
     11 C         141.0922  140.0182  161.3452 C.3     1  UNL1        0.0362
     12 C         139.9102  139.0974  161.4169 C.3     1  UNL1        0.0487
     13 C         138.9481  138.0074  161.0477 C.3     1  UNL1        0.0161
     14 C         138.9428  139.2063  162.5581 C.3     1  UNL1        0.0362
     15 C         139.1574  140.2359  163.6276 C.3     1  UNL1        0.0950
     16 C         143.1698  141.3667  165.8444 C.3     1  UNL1        0.0312
     17 C         143.0439  142.6972  165.1633 C.ar    1  UNL1       -0.0178
     18 C         144.2258  143.6180  165.0916 C.ar    1  UNL1       -0.0041
     19 C         144.0999  144.9484  164.4105 C.ar    1  UNL1       -0.0006
     20 C         142.7920  145.3582  163.8010 C.ar    1  UNL1       -0.0041
     21 C         141.6100  144.4375  163.8727 C.ar    1  UNL1       -0.0178
     22 C         140.3020  144.8472  163.2633 C.3     1  UNL1        0.0312
     23 C         141.7360  143.1070  164.5538 C.ar    1  UNL1        0.0457
     24 N         142.4434  137.1478  156.3393 N.pl3   1  UNL1       -0.2884
     25 C         142.5217  135.6765  156.0571 C.ar    1  UNL1        0.0515
     26 C         143.7250  134.8928  156.4904 C.ar    1  UNL1        0.0148
     27 C         143.8034  133.4217  156.2082 C.ar    1  UNL1        0.0013
     28 C         142.6784  132.7343  155.4928 C.ar    1  UNL1        0.0001
     29 C         141.4750  133.5180  155.0595 C.ar    1  UNL1        0.0013
     30 C         141.3967  134.9892  155.3417 C.ar    1  UNL1        0.0148
     31 C         142.9984  138.1313  155.3522 C.ar    1  UNL1        0.0515
     32 C         142.0846  138.8105  154.3755 C.ar    1  UNL1        0.0148
     33 C         142.6396  139.7941  153.3884 C.ar    1  UNL1        0.0013
     34 C         144.1083  140.0986  153.3779 C.ar    1  UNL1        0.0001
     35 C         145.0221  139.4194  154.3546 C.ar    1  UNL1        0.0013
     36 C         144.4671  138.4358  155.3417 C.ar    1  UNL1        0.0148
@<TRIPOS>BOND
     1    16    17    1
     2    17    18   ar
     3    18    19   ar
     4    19    20   ar
     5    20    21   ar
     6    21    22    1
     7    21    23   ar
     8    23     7    1
     9     7     8    2
    10     7     9   am
    11     9    10    1
    12    10    11    1
    13    11    12    1
    14    12    13    1
    15    12     1    1
    16     1     2    1
    17     2     3    1
    18     3     4    1
    19     4    24    1
    20    24    25    1
    21    25    26   ar
    22    26    27   ar
    23    27    28   ar
    24    28    29   ar
    25    29    30   ar
    26    24    31    1
    27    31    32   ar
    28    32    33   ar
    29    33    34   ar
    30    34    35   ar
    31    35    36   ar
    32     4     5    1
    33     5     6    1
    34    12    14    1
    35    14    15    1
    36    23    17   ar
    37    15     9    1
    38     6     1    1
    39    30    25   ar
    40    36    31   ar
@<TRIPOS>MOLECULE
*****
 36 40 0 0 0
SMALL
GASTEIGER

@<TRIPOS>ATOM
      1 N         140.5438  138.6141  160.1905 N.3     1  UNL1       -0.2750
      2 C         139.7386  138.5669  158.9257 C.3     1  UNL1        0.0737
      3 C         140.3678  138.0805  157.6539 C.3     1  UNL1        0.0374
      4 C         141.8020  137.6415  157.6467 C.3     1  UNL1        0.0800
      5 C         142.6072  137.6887  158.9114 C.3     1  UNL1        0.0374
      6 C         141.9780  138.1751  160.1833 C.3     1  UNL1        0.0737
      7 C         140.5631  142.1933  164.6661 C.2     1  UNL1        0.2484
      8 O         139.6004  142.3000  165.8114 O.2     1  UNL1       -0.2699
      9 N         140.3469  141.1624  163.5982 N.am    1  UNL1       -0.2760
     10 C         141.3097  141.0557  162.4528 C.3     1  UNL1        0.0950
     11 C         141.0935  140.0248  161.3849 C.3     1  UNL1        0.0362
     12 C         139.9146  139.1005  161.4624 C.3     1  UNL1        0.0487
     13 C         138.9542  138.0073  161.0981 C.3     1  UNL1        0.0161
     14 C         138.9519  139.2072  162.6077 C.3     1  UNL1        0.0362
     15 C         139.1681  140.2381  163.6756 C.3     1  UNL1        0.0950
     16 C         140.2873  144.8682  163.3361 C.3     1  UNL1        0.0312
     17 C         141.6041  144.4550  163.9236 C.ar    1  UNL1       -0.0178
     18 C         142.7830  145.3792  163.8462 C.ar    1  UNL1       -0.0041
     19 C         144.0998  144.9659  164.4338 C.ar    1  UNL1       -0.0006
     20 C         144.2377  143.6285  165.0988 C.ar    1  UNL1       -0.0041
     21 C         143.0588  142.7043  165.1762 C.ar    1  UNL1       -0.0178
     22 C         143.1967  141.3669  165.8412 C.3     1  UNL1        0.0312
     23 C         141.7420  143.1176  164.5886 C.ar    1  UNL1        0.0457
     24 N         142.4313  137.1551  156.3749 N.pl3   1  UNL1       -0.2884
     25 C         142.9839  138.1397  155.3873 C.ar    1  UNL1        0.0515
     26 C         142.0615  138.8553  154.4455 C.ar    1  UNL1        0.0148
     27 C         142.6141  139.8399  153.4579 C.ar    1  UNL1        0.0013
     28 C         144.0890  140.1089  153.4122 C.ar    1  UNL1        0.0001
     29 C         145.0115  139.3932  154.3540 C.ar    1  UNL1        0.0013
     30 C         144.4589  138.4086  155.3416 C.ar    1  UNL1        0.0148
     31 C         142.5079  135.6844  156.0906 C.ar    1  UNL1        0.0515
     32 C         143.6940  134.8916  156.5543 C.ar    1  UNL1        0.0148
     33 C         143.7706  133.4209  156.2700 C.ar    1  UNL1        0.0013
     34 C         142.6613  132.7427  155.5221 C.ar    1  UNL1        0.0001
     35 C         141.4752  133.5354  155.0584 C.ar    1  UNL1        0.0013
     36 C         141.3986  135.0062  155.3427 C.ar    1  UNL1        0.0148
@<TRIPOS>BOND
     1    16    17    1
     2    17    18   ar
     3    18    19   ar
     4    19    20   ar
     5    20    21   ar
     6    21    22    1
     7    21    23   ar
     8    23     7    1
     9     7     8    2
    10     7     9   am
    11     9    10    1
    12    10    11    1
    13    11    12    1
    14    12    13    1
    15    12     1    1
    16     1     2    1
    17     2     3    1
    18     3     4    1
    19     4    24    1
    20    24    25    1
    21    25    26   ar
    22    26    27   ar
    23    27    28   ar
    24    28    29   ar
    25    29    30   ar
    26    24    31    1
    27    31    32   ar
    28    32    33   ar
    29    33    34   ar
    30    34    35   ar
    31    35    36   ar
    32     4     5    1
    33     5     6    1
    34    12    14    1
    35    14    15    1
    36    23    17   ar
    37    15     9    1
    38     6     1    1
    39    30    25   ar
    40    36    31   ar
@<TRIPOS>MOLECULE
*****
 36 40 0 0 0
SMALL
GASTEIGER

@<TRIPOS>ATOM
      1 N         140.2540  143.6876  162.2837 N.3     1  UNL1       -0.2750
      2 C         141.5372  143.1367  162.8313 C.3     1  UNL1        0.0737
      3 C         141.5256  142.3152  164.0864 C.3     1  UNL1        0.0374
      4 C         140.2309  142.0448  164.7938 C.3     1  UNL1        0.0800
      5 C         138.9477  142.5957  164.2462 C.3     1  UNL1        0.0374
      6 C         138.9593  143.4171  162.9911 C.3     1  UNL1        0.0737
      7 C         139.8210  144.0108  156.5784 C.2     1  UNL1        0.2484
      8 O         139.9155  145.2058  155.6768 O.2     1  UNL1       -0.2699
      9 N         139.9692  144.1769  158.0618 N.am    1  UNL1       -0.2760
     10 C         139.8748  142.9817  158.9635 C.3     1  UNL1        0.0950
     11 C         140.0229  143.1478  160.4469 C.3     1  UNL1        0.0362
     12 C         140.2656  144.5090  161.0286 C.3     1  UNL1        0.0487
     13 C         140.5042  145.5849  162.0463 C.3     1  UNL1        0.0161
     14 C         140.3600  145.7040  160.1270 C.3     1  UNL1        0.0362
     15 C         140.2118  145.5379  158.6436 C.3     1  UNL1        0.0950
     16 C         137.0160  143.0703  156.0809 C.3     1  UNL1        0.0312
     17 C         138.1759  142.1794  155.7479 C.ar    1  UNL1       -0.0178
     18 C         137.9333  140.8183  155.1662 C.ar    1  UNL1       -0.0041
     19 C         139.0932  139.9273  154.8332 C.ar    1  UNL1       -0.0006
     20 C         140.4957  140.3975  155.0820 C.ar    1  UNL1       -0.0041
     21 C         140.7383  141.7587  155.6637 C.ar    1  UNL1       -0.0178
     22 C         142.1408  142.2289  155.9125 C.3     1  UNL1        0.0312
     23 C         139.5784  142.6496  155.9967 C.ar    1  UNL1        0.0457
     24 N         140.2193  141.2234  166.0488 N.pl3   1  UNL1       -0.2884
     25 C         139.4933  139.9110  166.0795 C.ar    1  UNL1        0.0515
     26 C         139.8448  138.8363  165.0940 C.ar    1  UNL1        0.0148
     27 C         139.1188  137.5240  165.1247 C.ar    1  UNL1        0.0013
     28 C         138.0414  137.2865  166.1409 C.ar    1  UNL1        0.0001
     29 C         137.6899  138.3612  167.1265 C.ar    1  UNL1        0.0013
     30 C         138.4159  139.6736  167.0958 C.ar    1  UNL1        0.0148
     31 C         140.9334  141.7142  167.2731 C.ar    1  UNL1        0.0515
     32 C         140.2941  142.7499  168.1498 C.ar    1  UNL1        0.0148
     33 C         141.0083  143.2407  169.3741 C.ar    1  UNL1        0.0013
     34 C         142.3619  142.6958  169.7218 C.ar    1  UNL1        0.0001
     35 C         143.0012  141.6601  168.8451 C.ar    1  UNL1        0.0013
     36 C         142.2870  141.1693  167.6208 C.ar    1  UNL1        0.0148
@<TRIPOS>BOND
     1    16    17    1
     2    17    18   ar
     3    18    19   ar
     4    19    20   ar
     5    20    21   ar
     6    21    22    1
     7    21    23   ar
     8    23     7    1
     9     7     8    2
    10     7     9   am
    11     9    10    1
    12    10    11    1
    13    11    12    1
    14    12    13    1
    15    12     1    1
    16     1     2    1
    17     2     3    1
    18     3     4    1
    19     4    24    1
    20    24    25    1
    21    25    26   ar
    22    26    27   ar
    23    27    28   ar
    24    28    29   ar
    25    29    30   ar
    26    24    31    1
    27    31    32   ar
    28    32    33   ar
    29    33    34   ar
    30    34    35   ar
    31    35    36   ar
    32     4     5    1
    33     5     6    1
    34    12    14    1
    35    14    15    1
    36    23    17   ar
    37    15     9    1
    38     6     1    1
    39    30    25   ar
    40    36    31   ar
@<TRIPOS>MOLECULE
*****
 36 40 0 0 0
SMALL
GASTEIGER

@<TRIPOS>ATOM
      1 N         140.2598  143.6621  162.3240 N.3     1  UNL1       -0.2750
      2 C         141.4223  142.7725  162.6512 C.3     1  UNL1        0.0737
      3 C         141.4068  141.9487  163.9047 C.3     1  UNL1        0.0374
      4 C         140.2287  142.0145  164.8308 C.3     1  UNL1        0.0800
      5 C         139.0662  142.9041  164.5036 C.3     1  UNL1        0.0374
      6 C         139.0818  143.7279  163.2502 C.3     1  UNL1        0.0737
      7 C         139.8482  143.9958  156.6177 C.2     1  UNL1        0.2484
      8 O         139.9449  145.1927  155.7188 O.2     1  UNL1       -0.2699
      9 N         139.9906  144.1592  158.1020 N.am    1  UNL1       -0.2760
     10 C         139.8939  142.9623  159.0010 C.3     1  UNL1        0.0950
     11 C         140.0363  143.1257  160.4853 C.3     1  UNL1        0.0362
     12 C         140.2753  144.4860  161.0705 C.3     1  UNL1        0.0487
     13 C         140.5090  145.5601  162.0912 C.3     1  UNL1        0.0161
     14 C         140.3720  145.6828  160.1716 C.3     1  UNL1        0.0362
     15 C         140.2297  145.5194  158.6873 C.3     1  UNL1        0.0950
     16 C         137.0449  143.0384  156.1434 C.3     1  UNL1        0.0312
     17 C         138.2075  142.1569  155.7953 C.ar    1  UNL1       -0.0178
     18 C         137.9685  140.7966  155.2101 C.ar    1  UNL1       -0.0041
     19 C         139.1311  139.9150  154.8620 C.ar    1  UNL1       -0.0006
     20 C         140.5328  140.3937  155.0991 C.ar    1  UNL1       -0.0041
     21 C         140.7718  141.7540  155.6844 C.ar    1  UNL1       -0.0178
     22 C         142.1735  142.2327  155.9215 C.3     1  UNL1        0.0312
     23 C         139.6092  142.6355  156.0325 C.ar    1  UNL1        0.0457
     24 N         140.2131  141.1907  166.0843 N.pl3   1  UNL1       -0.2884
     25 C         140.9356  141.6726  167.3074 C.ar    1  UNL1        0.0515
     26 C         142.2815  141.1086  167.6544 C.ar    1  UNL1        0.0148
     27 C         143.0039  141.5904  168.8775 C.ar    1  UNL1        0.0013
     28 C         142.3804  142.6362  169.7536 C.ar    1  UNL1        0.0001
     29 C         141.0345  143.2002  169.4066 C.ar    1  UNL1        0.0013
     30 C         140.3120  142.7183  168.1835 C.ar    1  UNL1        0.0148
     31 C         139.4751  139.8852  166.1147 C.ar    1  UNL1        0.0515
     32 C         138.4014  139.6542  167.1363 C.ar    1  UNL1        0.0148
     33 C         137.6634  138.3487  167.1667 C.ar    1  UNL1        0.0013
     34 C         137.9992  137.2741  166.1755 C.ar    1  UNL1        0.0001
     35 C         139.0729  137.5051  165.1538 C.ar    1  UNL1        0.0013
     36 C         139.8109  138.8106  165.1235 C.ar    1  UNL1        0.0148
@<TRIPOS>BOND
     1    16    17    1
     2    17    18   ar
     3    18    19   ar
     4    19    20   ar
     5    20    21   ar
     6    21    22    1
     7    21    23   ar
     8    23     7    1
     9     7     8    2
    10     7     9   am
    11     9    10    1
    12    10    11    1
    13    11    12    1
    14    12    13    1
    15    12     1    1
    16     1     2    1
    17     2     3    1
    18     3     4    1
    19     4    24    1
    20    24    25    1
    21    25    26   ar
    22    26    27   ar
    23    27    28   ar
    24    28    29   ar
    25    29    30   ar
    26    24    31    1
    27    31    32   ar
    28    32    33   ar
    29    33    34   ar
    30    34    35   ar
    31    35    36   ar
    32     4     5    1
    33     5     6    1
    34    12    14    1
    35    14    15    1
    36    23    17   ar
    37    15     9    1
    38     6     1    1
    39    30    25   ar
    40    36    31   ar
@<TRIPOS>MOLECULE
*****
 36 40 0 0 0
SMALL
GASTEIGER

@<TRIPOS>ATOM
      1 N         140.2449  143.6996  162.3501 N.3     1  UNL1       -0.2750
      2 C         139.0775  143.7610  163.2901 C.3     1  UNL1        0.0737
      3 C         139.0708  142.9217  164.5334 C.3     1  UNL1        0.0374
      4 C         140.2314  142.0211  164.8366 C.3     1  UNL1        0.0800
      5 C         141.3987  141.9597  163.8966 C.3     1  UNL1        0.0374
      6 C         141.4054  142.7990  162.6533 C.3     1  UNL1        0.0737
      7 C         139.8626  144.0949  156.6458 C.2     1  UNL1        0.2484
      8 O         139.9407  145.3044  155.7620 O.2     1  UNL1       -0.2699
      9 N         139.9923  144.2429  158.1328 N.am    1  UNL1       -0.2760
     10 C         139.9142  143.0333  159.0165 C.3     1  UNL1        0.0950
     11 C         140.0439  143.1813  160.5036 C.3     1  UNL1        0.0362
     12 C         140.2516  144.5389  161.1069 C.3     1  UNL1        0.0487
     13 C         140.4569  145.6050  162.1420 C.3     1  UNL1        0.0161
     14 C         140.3296  145.7484  160.2232 C.3     1  UNL1        0.0362
     15 C         140.2000  145.6004  158.7361 C.3     1  UNL1        0.0950
     16 C         142.2245  142.3539  156.0207 C.3     1  UNL1        0.0312
     17 C         140.8358  141.8668  155.7299 C.ar    1  UNL1       -0.0178
     18 C         140.6281  140.5093  155.1267 C.ar    1  UNL1       -0.0041
     19 C         139.2395  140.0223  154.8359 C.ar    1  UNL1       -0.0006
     20 C         138.0586  140.8927  155.1485 C.ar    1  UNL1       -0.0041
     21 C         138.2663  142.2503  155.7517 C.ar    1  UNL1       -0.0178
     22 C         137.0854  143.1208  156.0643 C.3     1  UNL1        0.0312
     23 C         139.6549  142.7373  156.0425 C.ar    1  UNL1        0.0457
     24 N         140.2247  141.1818  166.0797 N.pl3   1  UNL1       -0.2884
     25 C         139.4831  139.8780  166.1004 C.ar    1  UNL1        0.0515
     26 C         138.4069  139.6435  167.1186 C.ar    1  UNL1        0.0148
     27 C         137.6654  138.3398  167.1394 C.ar    1  UNL1        0.0013
     28 C         137.9999  137.2707  166.1419 C.ar    1  UNL1        0.0001
     29 C         139.0762  137.5052  165.1236 C.ar    1  UNL1        0.0013
     30 C         139.8178  138.8090  165.1029 C.ar    1  UNL1        0.0148
     31 C         140.9596  141.6461  167.3021 C.ar    1  UNL1        0.0515
     32 C         142.2693  141.0166  167.6742 C.ar    1  UNL1        0.0148
     33 C         143.0041  141.4809  168.8967 C.ar    1  UNL1        0.0013
     34 C         142.4293  142.5748  169.7470 C.ar    1  UNL1        0.0001
     35 C         141.1196  143.2043  169.3749 C.ar    1  UNL1        0.0013
     36 C         140.3848  142.7400  168.1525 C.ar    1  UNL1        0.0148
@<TRIPOS>BOND
     1    16    17    1
     2    17    18   ar
     3    18    19   ar
     4    19    20   ar
     5    20    21   ar
     6    21    22    1
     7    21    23   ar
     8    23     7    1
     9     7     8    2
    10     7     9   am
    11     9    10    1
    12    10    11    1
    13    11    12    1
    14    12    13    1
    15    12     1    1
    16     1     2    1
    17     2     3    1
    18     3     4    1
    19     4    24    1
    20    24    25    1
    21    25    26   ar
    22    26    27   ar
    23    27    28   ar
    24    28    29   ar
    25    29    30   ar
    26    24    31    1
    27    31    32   ar
    28    32    33   ar
    29    33    34   ar
    30    34    35   ar
    31    35    36   ar
    32     4     5    1
    33     5     6    1
    34    12    14    1
    35    14    15    1
    36    23    17   ar
    37    15     9    1
    38     6     1    1
    39    30    25   ar
    40    36    31   ar
@<TRIPOS>MOLECULE
*****
 36 40 0 0 0
SMALL
GASTEIGER

@<TRIPOS>ATOM
      1 N         140.1486  138.9897  163.2066 N.3     1  UNL1       -0.2750
      2 C         141.3943  138.1907  162.9618 C.3     1  UNL1        0.0737
      3 C         142.0933  138.2782  161.6375 C.3     1  UNL1        0.0374
      4 C         141.5466  139.1646  160.5580 C.3     1  UNL1        0.0800
      5 C         140.3009  139.9636  160.8028 C.3     1  UNL1        0.0374
      6 C         139.6019  139.8761  162.1271 C.3     1  UNL1        0.0737
      7 C         140.0152  140.1527  168.8166 C.2     1  UNL1        0.2484
      8 O         138.9732  139.8130  169.8407 O.2     1  UNL1       -0.2699
      9 N         139.8267  139.7358  167.3880 N.am    1  UNL1       -0.2760
     10 C         140.8687  140.0755  166.3639 C.3     1  UNL1        0.0950
     11 C         140.6802  139.6587  164.9353 C.3     1  UNL1        0.0362
     12 C         139.4496  138.9022  164.5309 C.3     1  UNL1        0.0487
     13 C         138.4618  138.1761  163.6666 C.3     1  UNL1        0.0161
     14 C         138.4076  138.5626  165.5550 C.3     1  UNL1        0.0362
     15 C         138.5962  138.9794  166.9836 C.3     1  UNL1        0.0950
     16 C         142.3793  138.6832  169.9353 C.3     1  UNL1        0.0312
     17 C         142.4278  140.1744  169.7803 C.ar    1  UNL1       -0.0178
     18 C         143.6583  140.9309  170.1847 C.ar    1  UNL1       -0.0041
     19 C         143.7068  142.4221  170.0297 C.ar    1  UNL1       -0.0006
     20 C         142.5247  143.1568  169.4703 C.ar    1  UNL1       -0.0041
     21 C         141.2942  142.4003  169.0660 C.ar    1  UNL1       -0.0178
     22 C         140.1121  143.1350  168.5066 C.3     1  UNL1        0.0312
     23 C         141.2458  140.9091  169.2210 C.ar    1  UNL1        0.0457
     24 N         142.2455  139.2521  159.2337 N.pl3   1  UNL1       -0.2884
     25 C         143.2345  140.3509  158.9788 C.ar    1  UNL1        0.0515
     26 C         143.5546  141.3379  160.0619 C.ar    1  UNL1        0.0148
     27 C         144.5435  142.4366  159.8070 C.ar    1  UNL1        0.0013
     28 C         145.2123  142.5482  158.4691 C.ar    1  UNL1        0.0001
     29 C         144.8921  141.5611  157.3859 C.ar    1  UNL1        0.0013
     30 C         143.9032  140.4624  157.6408 C.ar    1  UNL1        0.0148
     31 C         141.9556  138.2411  158.1643 C.ar    1  UNL1        0.0515
     32 C         142.8806  137.0778  157.9613 C.ar    1  UNL1        0.0148
     33 C         142.5907  136.0668  156.8919 C.ar    1  UNL1        0.0013
     34 C         141.3757  136.2189  156.0255 C.ar    1  UNL1        0.0001
     35 C         140.4507  137.3821  156.2285 C.ar    1  UNL1        0.0013
     36 C         140.7406  138.3932  157.2979 C.ar    1  UNL1        0.0148
@<TRIPOS>BOND
     1    16    17    1
     2    17    18   ar
     3    18    19   ar
     4    19    20   ar
     5    20    21   ar
     6    21    22    1
     7    21    23   ar
     8    23     7    1
     9     7     8    2
    10     7     9   am
    11     9    10    1
    12    10    11    1
    13    11    12    1
    14    12    13    1
    15    12     1    1
    16     1     2    1
    17     2     3    1
    18     3     4    1
    19     4    24    1
    20    24    25    1
    21    25    26   ar
    22    26    27   ar
    23    27    28   ar
    24    28    29   ar
    25    29    30   ar
    26    24    31    1
    27    31    32   ar
    28    32    33   ar
    29    33    34   ar
    30    34    35   ar
    31    35    36   ar
    32     4     5    1
    33     5     6    1
    34    12    14    1
    35    14    15    1
    36    23    17   ar
    37    15     9    1
    38     6     1    1
    39    30    25   ar
    40    36    31   ar
@<TRIPOS>MOLECULE
*****
 36 40 0 0 0
SMALL
GASTEIGER

@<TRIPOS>ATOM
      1 N         140.1317  139.0045  163.2234 N.3     1  UNL1       -0.2750
      2 C         141.3849  138.2172  162.9795 C.3     1  UNL1        0.0737
      3 C         142.0796  138.3048  161.6529 C.3     1  UNL1        0.0374
      4 C         141.5210  139.1798  160.5702 C.3     1  UNL1        0.0800
      5 C         140.2677  139.9672  160.8141 C.3     1  UNL1        0.0374
      6 C         139.5731  139.8795  162.1407 C.3     1  UNL1        0.0737
      7 C         140.0211  140.1584  168.8357 C.2     1  UNL1        0.2484
      8 O         138.9817  139.8201  169.8629 O.2     1  UNL1       -0.2699
      9 N         139.8264  139.7445  167.4071 N.am    1  UNL1       -0.2760
     10 C         140.8659  140.0829  166.3800 C.3     1  UNL1        0.0950
     11 C         140.6712  139.6691  164.9514 C.3     1  UNL1        0.0362
     12 C         139.4370  138.9168  164.5500 C.3     1  UNL1        0.0487
     13 C         138.4441  138.1951  163.6878 C.3     1  UNL1        0.0161
     14 C         138.3976  138.5785  165.5771 C.3     1  UNL1        0.0362
     15 C         138.5923  138.9924  167.0057 C.3     1  UNL1        0.0950
     16 C         142.3869  138.6796  169.9384 C.3     1  UNL1        0.0312
     17 C         142.4382  140.1712  169.7885 C.ar    1  UNL1       -0.0178
     18 C         143.6722  140.9234  170.1898 C.ar    1  UNL1       -0.0041
     19 C         143.7235  142.4150  170.0398 C.ar    1  UNL1       -0.0006
     20 C         142.5406  143.1544  169.4885 C.ar    1  UNL1       -0.0041
     21 C         141.3065  142.4022  169.0871 C.ar    1  UNL1       -0.0178
     22 C         140.1235  143.1416  168.5357 C.3     1  UNL1        0.0312
     23 C         141.2553  140.9106  169.2371 C.ar    1  UNL1        0.0457
     24 N         142.2155  139.2676  159.2437 N.pl3   1  UNL1       -0.2884
     25 C         141.9235  138.2553  158.1758 C.ar    1  UNL1        0.0515
     26 C         140.6892  138.3880  157.3340 C.ar    1  UNL1        0.0148
     27 C         140.3972  137.3758  156.2662 C.ar    1  UNL1        0.0013
     28 C         141.3394  136.2308  156.0403 C.ar    1  UNL1        0.0001
     29 C         142.5738  136.0980  156.8822 C.ar    1  UNL1        0.0013
     30 C         142.8659  137.1103  157.9500 C.ar    1  UNL1        0.0148
     31 C         143.2020  140.3674  158.9848 C.ar    1  UNL1        0.0515
     32 C         143.8329  140.5058  157.6309 C.ar    1  UNL1        0.0148
     33 C         144.8194  141.6056  157.3720 C.ar    1  UNL1        0.0013
     34 C         145.1751  142.5671  158.4670 C.ar    1  UNL1        0.0001
     35 C         144.5443  142.4287  159.8209 C.ar    1  UNL1        0.0013
     36 C         143.5578  141.3289  160.0798 C.ar    1  UNL1        0.0148
@<TRIPOS>BOND
     1    16    17    1
     2    17    18   ar
     3    18    19   ar
     4    19    20   ar
     5    20    21   ar
     6    21    22    1
     7    21    23   ar
     8    23     7    1
     9     7     8    2
    10     7     9   am
    11     9    10    1
    12    10    11    1
    13    11    12    1
    14    12    13    1
    15    12     1    1
    16     1     2    1
    17     2     3    1
    18     3     4    1
    19     4    24    1
    20    24    25    1
    21    25    26   ar
    22    26    27   ar
    23    27    28   ar
    24    28    29   ar
    25    29    30   ar
    26    24    31    1
    27    31    32   ar
    28    32    33   ar
    29    33    34   ar
    30    34    35   ar
    31    35    36   ar
    32     4     5    1
    33     5     6    1
    34    12    14    1
    35    14    15    1
    36    23    17   ar
    37    15     9    1
    38     6     1    1
    39    30    25   ar
    40    36    31   ar
@<TRIPOS>MOLECULE
*****
 36 40 0 0 0
SMALL
GASTEIGER

@<TRIPOS>ATOM
      1 N         141.6852  142.6361  159.8516 N.3     1  UNL1       -0.2750
      2 C         141.7217  141.8934  158.5488 C.3     1  UNL1        0.0737
      3 C         140.8848  142.3612  157.3952 C.3     1  UNL1        0.0374
      4 C         140.0115  143.5715  157.5442 C.3     1  UNL1        0.0800
      5 C         139.9750  144.3142  158.8470 C.3     1  UNL1        0.0374
      6 C         140.8119  143.8465  160.0006 C.3     1  UNL1        0.0737
      7 C         142.1115  139.8763  164.8559 C.2     1  UNL1        0.2484
      8 O         143.3118  139.6527  165.7272 O.2     1  UNL1       -0.2699
      9 N         142.2484  140.6403  163.5723 N.am    1  UNL1       -0.2760
     10 C         141.0480  140.8640  162.7010 C.3     1  UNL1        0.0950
     11 C         141.1848  141.6280  161.4175 C.3     1  UNL1        0.0362
     12 C         142.5221  142.1684  161.0052 C.3     1  UNL1        0.0487
     13 C         143.5686  142.8712  160.1923 C.3     1  UNL1        0.0161
     14 C         143.7224  141.9447  161.8765 C.3     1  UNL1        0.0362
     15 C         143.5855  141.1807  163.1601 C.3     1  UNL1        0.0950
     16 C         140.4006  141.4147  166.7811 C.3     1  UNL1        0.0312
     17 C         139.9189  140.1051  166.2307 C.ar    1  UNL1       -0.0178
     18 C         138.5817  139.5647  166.6429 C.ar    1  UNL1       -0.0041
     19 C         138.1000  138.2551  166.0925 C.ar    1  UNL1       -0.0006
     20 C         138.9554  137.4859  165.1300 C.ar    1  UNL1       -0.0041
     21 C         140.2926  138.0263  164.7178 C.ar    1  UNL1       -0.0178
     22 C         141.1481  137.2571  163.7552 C.3     1  UNL1        0.0312
     23 C         140.7743  139.3359  165.2682 C.ar    1  UNL1        0.0457
     24 N         139.1746  144.0393  156.3907 N.pl3   1  UNL1       -0.2884
     25 C         137.9814  143.2402  155.9570 C.ar    1  UNL1        0.0515
     26 C         137.3499  143.5000  154.6216 C.ar    1  UNL1        0.0148
     27 C         136.1568  142.7009  154.1879 C.ar    1  UNL1        0.0013
     28 C         135.5953  141.6420  155.0898 C.ar    1  UNL1        0.0001
     29 C         136.2268  141.3822  156.4254 C.ar    1  UNL1        0.0013
     30 C         137.4200  142.1814  156.8590 C.ar    1  UNL1        0.0148
     31 C         139.5307  145.3061  155.6707 C.ar    1  UNL1        0.0515
     32 C         138.8581  146.5944  156.0422 C.ar    1  UNL1        0.0148
     33 C         139.2143  147.8612  155.3222 C.ar    1  UNL1        0.0013
     34 C         140.2429  147.8397  154.2308 C.ar    1  UNL1        0.0001
     35 C         140.9155  146.5514  153.8593 C.ar    1  UNL1        0.0013
     36 C         140.5594  145.2846  154.5792 C.ar    1  UNL1        0.0148
@<TRIPOS>BOND
     1    16    17    1
     2    17    18   ar
     3    18    19   ar
     4    19    20   ar
     5    20    21   ar
     6    21    22    1
     7    21    23   ar
     8    23     7    1
     9     7     8    2
    10     7     9   am
    11     9    10    1
    12    10    11    1
    13    11    12    1
    14    12    13    1
    15    12     1    1
    16     1     2    1
    17     2     3    1
    18     3     4    1
    19     4    24    1
    20    24    25    1
    21    25    26   ar
    22    26    27   ar
    23    27    28   ar
    24    28    29   ar
    25    29    30   ar
    26    24    31    1
    27    31    32   ar
    28    32    33   ar
    29    33    34   ar
    30    34    35   ar
    31    35    36   ar
    32     4     5    1
    33     5     6    1
    34    12    14    1
    35    14    15    1
    36    23    17   ar
    37    15     9    1
    38     6     1    1
    39    30    25   ar
    40    36    31   ar
@<TRIPOS>MOLECULE
*****
 36 40 0 0 0
SMALL
GASTEIGER

@<TRIPOS>ATOM
      1 N         141.7004  142.6216  159.8839 N.3     1  UNL1       -0.2750
      2 C         140.8023  143.8133  160.0364 C.3     1  UNL1        0.0737
      3 C         139.9695  144.2778  158.8785 C.3     1  UNL1        0.0374
      4 C         140.0348  143.5507  157.5682 C.3     1  UNL1        0.0800
      5 C         140.9328  142.3590  157.4157 C.3     1  UNL1        0.0374
      6 C         141.7656  141.8944  158.5736 C.3     1  UNL1        0.0737
      7 C         142.1118  139.8641  164.8908 C.2     1  UNL1        0.2484
      8 O         143.3085  139.6449  165.7681 O.2     1  UNL1       -0.2699
      9 N         142.2523  140.6284  163.6078 N.am    1  UNL1       -0.2760
     10 C         141.0554  140.8476  162.7305 C.3     1  UNL1        0.0950
     11 C         141.1959  141.6119  161.4474 C.3     1  UNL1        0.0362
     12 C         142.5332  142.1570  161.0418 C.3     1  UNL1        0.0487
     13 C         143.5813  142.8635  160.2339 C.3     1  UNL1        0.0161
     14 C         143.7300  141.9378  161.9191 C.3     1  UNL1        0.0362
     15 C         143.5895  141.1735  163.2021 C.3     1  UNL1        0.0950
     16 C         140.4000  141.3806  166.8324 C.3     1  UNL1        0.0312
     17 C         139.9186  140.0772  166.2673 C.ar    1  UNL1       -0.0178
     18 C         138.5814  139.5321  166.6729 C.ar    1  UNL1       -0.0041
     19 C         138.1000  138.2287  166.1077 C.ar    1  UNL1       -0.0006
     20 C         138.9558  137.4704  165.1369 C.ar    1  UNL1       -0.0041
     21 C         140.2931  138.0156  164.7313 C.ar    1  UNL1       -0.0178
     22 C         141.1490  137.2573  163.7605 C.3     1  UNL1        0.0312
     23 C         140.7745  139.3190  165.2965 C.ar    1  UNL1        0.0457
     24 N         139.2020  144.0152  156.4103 N.pl3   1  UNL1       -0.2884
     25 C         139.5587  145.2820  155.6904 C.ar    1  UNL1        0.0515
     26 C         138.8645  146.5646  156.0409 C.ar    1  UNL1        0.0148
     27 C         139.2211  147.8314  155.3211 C.ar    1  UNL1        0.0013
     28 C         140.2719  147.8155  154.2508 C.ar    1  UNL1        0.0001
     29 C         140.9661  146.5328  153.9003 C.ar    1  UNL1        0.0013
     30 C         140.6095  145.2660  154.6201 C.ar    1  UNL1        0.0148
     31 C         138.0127  143.2130  155.9722 C.ar    1  UNL1        0.0515
     32 C         137.4217  142.1850  156.8909 C.ar    1  UNL1        0.0148
     33 C         136.2324  141.3828  156.4528 C.ar    1  UNL1        0.0013
     34 C         135.6340  141.6086  155.0960 C.ar    1  UNL1        0.0001
     35 C         136.2250  142.6366  154.1773 C.ar    1  UNL1        0.0013
     36 C         137.4143  143.4388  154.6154 C.ar    1  UNL1        0.0148
@<TRIPOS>BOND
     1    16    17    1
     2    17    18   ar
     3    18    19   ar
     4    19    20   ar
     5    20    21   ar
     6    21    22    1
     7    21    23   ar
     8    23     7    1
     9     7     8    2
    10     7     9   am
    11     9    10    1
    12    10    11    1
    13    11    12    1
    14    12    13    1
    15    12     1    1
    16     1     2    1
    17     2     3    1
    18     3     4    1
    19     4    24    1
    20    24    25    1
    21    25    26   ar
    22    26    27   ar
    23    27    28   ar
    24    28    29   ar
    25    29    30   ar
    26    24    31    1
    27    31    32   ar
    28    32    33   ar
    29    33    34   ar
    30    34    35   ar
    31    35    36   ar
    32     4     5    1
    33     5     6    1
    34    12    14    1
    35    14    15    1
    36    23    17   ar
    37    15     9    1
    38     6     1    1
    39    30    25   ar
    40    36    31   ar
