@<TRIPOS>MOLECULE
*****
 27 30 0 0 0
SMALL
GASTEIGER

@<TRIPOS>ATOM
      1 C         139.9594  139.4949  166.7319 C.ar    1  UNL1        0.0153
      2 C         141.0769  139.4823  165.7314 C.ar    1  UNL1        0.0043
      3 C         140.8873  138.8106  164.4037 C.ar    1  UNL1        0.0369
      4 C         139.5802  138.1515  164.0764 C.ar    1  UNL1        0.1384
      5 C         138.4627  138.1642  165.0769 C.ar    1  UNL1        0.0369
      6 C         138.6523  138.8359  166.4047 C.ar    1  UNL1        0.0043
      7 C         142.1210  142.5969  170.6828 C.3     1  UNL1        0.0095
      8 C         141.5155  141.7416  169.6096 C.3     1  UNL1        0.0761
      9 C         142.7129  142.2702  168.8768 C.3     1  UNL1        0.0095
     10 C         141.3258  141.0699  168.2819 C.3     1  UNL1        0.0560
     11 C         140.1491  140.1667  168.0597 C.2     1  UNL1        0.0767
     12 N         139.1620  139.9351  169.1651 N.2     1  UNL1       -0.1836
     13 N         139.3517  140.6068  170.4928 N.am    1  UNL1       -0.2062
     14 C         140.5284  141.5101  170.7150 C.2     1  UNL1        0.2405
     15 O         140.7181  142.1818  172.0428 O.2     1  UNL1       -0.2734
     16 H         138.7038  140.4549  171.2183 H       1  UNL1        0.1772
     17 O         139.3906  137.4798  162.7487 O.3     1  UNL1       -0.4791
     18 C         139.0484  138.2958  161.5375 C.3     1  UNL1        0.1687
     19 C         139.9970  138.3494  160.3768 C.3     1  UNL1        0.0609
     20 C         139.6548  139.1654  159.1655 C.3     1  UNL1        0.0758
     21 N         138.3640  139.9277  159.1150 N.3     1  UNL1       -0.2737
     22 C         137.4154  139.8741  160.2756 C.3     1  UNL1        0.0758
     23 C         137.7576  139.0581  161.4869 C.3     1  UNL1        0.0609
     24 C         138.0217  140.7436  157.9037 C.3     1  UNL1        0.0575
     25 C         137.7785  140.4407  156.4548 C.3     1  UNL1        0.0160
     26 C         137.5378  141.8975  156.1908 C.3     1  UNL1        0.0028
     27 C         137.7810  142.2005  157.6396 C.3     1  UNL1        0.0160
@<TRIPOS>BOND
     1     7     8    1
     2     8     9    1
     3     8    10    1
     4    10    11    1
     5    11     1    1
     6     1     2   ar
     7     2     3   ar
     8     3     4   ar
     9     4    17    1
    10    17    18    1
    11    18    19    1
    12    19    20    1
    13    20    21    1
    14    21    24    1
    15    24    25    1
    16    25    26    1
    17    26    27    1
    18    21    22    1
    19    22    23    1
    20     4     5   ar
    21     5     6   ar
    22    11    12    2
    23    12    13    1
    24    13    14   am
    25    14    15    2
    26    14     8    1
    27     6     1   ar
    28    23    18    1
    29    27    24    1
    30    13    16    1
@<TRIPOS>MOLECULE
*****
 27 30 0 0 0
SMALL
GASTEIGER

@<TRIPOS>ATOM
      1 C         139.9851  139.5118  166.7133 C.ar    1  UNL1        0.0153
      2 C         138.6493  138.9416  166.3385 C.ar    1  UNL1        0.0043
      3 C         138.4653  138.2745  165.0077 C.ar    1  UNL1        0.0369
      4 C         139.6171  138.1775  164.0517 C.ar    1  UNL1        0.1384
      5 C         140.9529  138.7477  164.4265 C.ar    1  UNL1        0.0369
      6 C         141.1369  139.4149  165.7573 C.ar    1  UNL1        0.0043
      7 C         142.1289  142.6014  170.6836 C.3     1  UNL1        0.0095
      8 C         141.5282  141.7495  169.6050 C.3     1  UNL1        0.0761
      9 C         142.7280  142.2816  168.8787 C.3     1  UNL1        0.0095
     10 C         141.3442  141.0823  168.2742 C.3     1  UNL1        0.0560
     11 C         140.1691  140.1789  168.0442 C.2     1  UNL1        0.0767
     12 N         139.1780  139.9427  169.1450 N.2     1  UNL1       -0.1836
     13 N         139.3620  140.6098  170.4758 N.am    1  UNL1       -0.2062
     14 C         140.5371  141.5132  170.7058 C.2     1  UNL1        0.2405
     15 O         140.7211  142.1803  172.0366 O.2     1  UNL1       -0.2734
     16 H         138.7115  140.4547  171.1983 H       1  UNL1        0.1772
     17 O         139.4331  137.5104  162.7209 O.3     1  UNL1       -0.4791
     18 C         139.0670  138.3268  161.5169 C.3     1  UNL1        0.1687
     19 C         140.0244  138.4392  160.3677 C.3     1  UNL1        0.0609
     20 C         139.6583  139.2555  159.1637 C.3     1  UNL1        0.0758
     21 N         138.3349  139.9595  159.1089 N.3     1  UNL1       -0.2737
     22 C         137.3776  139.8471  160.2582 C.3     1  UNL1        0.0758
     23 C         137.7436  139.0307  161.4622 C.3     1  UNL1        0.0609
     24 C         137.9689  140.7758  157.9049 C.3     1  UNL1        0.0575
     25 C         137.7809  142.2389  157.6327 C.3     1  UNL1        0.0160
     26 C         137.4512  141.9303  156.2023 C.3     1  UNL1        0.0028
     27 C         137.6392  140.4672  156.4745 C.3     1  UNL1        0.0160
@<TRIPOS>BOND
     1     7     8    1
     2     8     9    1
     3     8    10    1
     4    10    11    1
     5    11     1    1
     6     1     2   ar
     7     2     3   ar
     8     3     4   ar
     9     4    17    1
    10    17    18    1
    11    18    19    1
    12    19    20    1
    13    20    21    1
    14    21    24    1
    15    24    25    1
    16    25    26    1
    17    26    27    1
    18    21    22    1
    19    22    23    1
    20     4     5   ar
    21     5     6   ar
    22    11    12    2
    23    12    13    1
    24    13    14   am
    25    14    15    2
    26    14     8    1
    27     6     1   ar
    28    23    18    1
    29    27    24    1
    30    13    16    1
@<TRIPOS>MOLECULE
*****
 27 30 0 0 0
SMALL
GASTEIGER

@<TRIPOS>ATOM
      1 C         143.0528  140.5347  166.5454 C.ar    1  UNL1        0.0153
      2 C         143.2887  141.7746  165.7348 C.ar    1  UNL1        0.0043
      3 C         143.8995  141.6725  164.3686 C.ar    1  UNL1        0.0369
      4 C         144.2744  140.3306  163.8130 C.ar    1  UNL1        0.1384
      5 C         144.0385  139.0907  164.6236 C.ar    1  UNL1        0.0369
      6 C         143.4277  139.1928  165.9898 C.ar    1  UNL1        0.0043
      7 C         140.1867  142.4629  170.7848 C.3     1  UNL1        0.0095
      8 C         140.9773  141.9205  169.6312 C.3     1  UNL1        0.0761
      9 C         140.4597  143.1883  169.0190 C.3     1  UNL1        0.0095
     10 C         141.5881  141.8183  168.2650 C.3     1  UNL1        0.0560
     11 C         142.4420  140.6368  167.9116 C.2     1  UNL1        0.0767
     12 N         142.6851  139.5574  168.9244 N.2     1  UNL1       -0.1836
     13 N         142.0743  139.6595  170.2906 N.am    1  UNL1       -0.2062
     14 C         141.2204  140.8411  170.6440 C.2     1  UNL1        0.2405
     15 O         140.6096  140.9432  172.0102 O.2     1  UNL1       -0.2734
     16 H         142.2338  138.9511  170.9553 H       1  UNL1        0.1772
     17 O         144.8852  140.2285  162.4468 O.3     1  UNL1       -0.4791
     18 C         144.0959  139.6416  161.3143 C.3     1  UNL1        0.1687
     19 C         143.7813  138.1751  161.3001 C.3     1  UNL1        0.0609
     20 C         142.9920  137.5882  160.1676 C.3     1  UNL1        0.0758
     21 N         142.5173  138.4678  159.0493 N.3     1  UNL1       -0.2737
     22 C         142.8318  139.9344  159.0634 C.3     1  UNL1        0.0758
     23 C         143.6211  140.5213  160.1959 C.3     1  UNL1        0.0609
     24 C         141.7280  137.8809  157.9168 C.3     1  UNL1        0.0575
     25 C         140.3151  138.0101  157.4297 C.3     1  UNL1        0.0160
     26 C         140.6117  137.0510  156.3152 C.3     1  UNL1        0.0028
     27 C         142.0246  136.9218  156.8022 C.3     1  UNL1        0.0160
@<TRIPOS>BOND
     1     7     8    1
     2     8     9    1
     3     8    10    1
     4    10    11    1
     5    11     1    1
     6     1     2   ar
     7     2     3   ar
     8     3     4   ar
     9     4    17    1
    10    17    18    1
    11    18    19    1
    12    19    20    1
    13    20    21    1
    14    21    24    1
    15    24    25    1
    16    25    26    1
    17    26    27    1
    18    21    22    1
    19    22    23    1
    20     4     5   ar
    21     5     6   ar
    22    11    12    2
    23    12    13    1
    24    13    14   am
    25    14    15    2
    26    14     8    1
    27     6     1   ar
    28    23    18    1
    29    27    24    1
    30    13    16    1
@<TRIPOS>MOLECULE
*****
 27 30 0 0 0
SMALL
GASTEIGER

@<TRIPOS>ATOM
      1 C         139.2177  139.8509  166.4660 C.ar    1  UNL1        0.0153
      2 C         139.1494  138.4019  166.0845 C.ar    1  UNL1        0.0043
      3 C         138.7788  138.0116  164.6844 C.ar    1  UNL1        0.0369
      4 C         138.4767  139.0704  163.6657 C.ar    1  UNL1        0.1384
      5 C         138.5451  140.5195  164.0471 C.ar    1  UNL1        0.0369
      6 C         138.9156  140.9097  165.4473 C.ar    1  UNL1        0.0043
      7 C         141.7740  142.2987  170.6347 C.3     1  UNL1        0.0095
      8 C         141.0629  141.6190  169.5023 C.3     1  UNL1        0.0761
      9 C         142.0435  142.4524  168.7315 C.3     1  UNL1        0.0095
     10 C         140.6924  141.2288  168.1022 C.3     1  UNL1        0.0560
     11 C         139.5883  140.2412  167.8662 C.2     1  UNL1        0.0767
     12 N         138.8548  139.6439  169.0302 N.2     1  UNL1       -0.1836
     13 N         139.2253  140.0342  170.4303 N.am    1  UNL1       -0.2062
     14 C         140.3294  141.0217  170.6664 C.2     1  UNL1        0.2405
     15 O         140.7000  141.4120  172.0666 O.2     1  UNL1       -0.2734
     16 H         138.7439  139.6421  171.1944 H       1  UNL1        0.1772
     17 O         138.1062  138.6801  162.2656 O.3     1  UNL1       -0.4791
     18 C         139.1254  138.7660  161.1684 C.3     1  UNL1        0.1687
     19 C         140.5082  138.2267  161.3853 C.3     1  UNL1        0.0609
     20 C         141.5274  138.3126  160.2882 C.3     1  UNL1        0.0758
     21 N         141.1639  138.9377  158.9740 N.3     1  UNL1       -0.2737
     22 C         139.7811  139.4770  158.7571 C.3     1  UNL1        0.0758
     23 C         138.7619  139.3911  159.8542 C.3     1  UNL1        0.0609
     24 C         142.1831  139.0236  157.8769 C.3     1  UNL1        0.0575
     25 C         143.2000  140.0408  157.4510 C.3     1  UNL1        0.0160
     26 C         143.6245  139.1450  156.3252 C.3     1  UNL1        0.0028
     27 C         142.6077  138.1278  156.7510 C.3     1  UNL1        0.0160
@<TRIPOS>BOND
     1     7     8    1
     2     8     9    1
     3     8    10    1
     4    10    11    1
     5    11     1    1
     6     1     2   ar
     7     2     3   ar
     8     3     4   ar
     9     4    17    1
    10    17    18    1
    11    18    19    1
    12    19    20    1
    13    20    21    1
    14    21    24    1
    15    24    25    1
    16    25    26    1
    17    26    27    1
    18    21    22    1
    19    22    23    1
    20     4     5   ar
    21     5     6   ar
    22    11    12    2
    23    12    13    1
    24    13    14   am
    25    14    15    2
    26    14     8    1
    27     6     1   ar
    28    23    18    1
    29    27    24    1
    30    13    16    1
@<TRIPOS>MOLECULE
*****
 27 30 0 0 0
SMALL
GASTEIGER

@<TRIPOS>ATOM
      1 C         143.0192  141.8491  166.2695 C.ar    1  UNL1        0.0153
      2 C         142.6178  140.8024  165.2728 C.ar    1  UNL1        0.0043
      3 C         143.2160  140.8080  163.8973 C.ar    1  UNL1        0.0369
      4 C         144.2155  141.8603  163.5183 C.ar    1  UNL1        0.1384
      5 C         144.6169  142.9070  164.5150 C.ar    1  UNL1        0.0369
      6 C         144.0187  142.9014  165.8906 C.ar    1  UNL1        0.0043
      7 C         139.6041  140.7871  170.4064 C.3     1  UNL1        0.0095
      8 C         140.5506  141.0876  169.2821 C.3     1  UNL1        0.0761
      9 C         139.5477  140.2386  168.5585 C.3     1  UNL1        0.0095
     10 C         141.1488  141.0932  167.9066 C.3     1  UNL1        0.0560
     11 C         142.4211  141.8435  167.6451 C.2     1  UNL1        0.0767
     12 N         143.0952  142.5881  168.7591 N.2     1  UNL1       -0.1836
     13 N         142.4970  142.5824  170.1346 N.am    1  UNL1       -0.2062
     14 C         141.2247  141.8322  170.3961 C.2     1  UNL1        0.2405
     15 O         140.6265  141.8266  171.7718 O.2     1  UNL1       -0.2734
     16 H         142.9395  143.0711  170.8658 H       1  UNL1        0.1772
     17 O         144.8136  141.8659  162.1428 O.3     1  UNL1       -0.4791
     18 C         144.1207  142.5897  161.0265 C.3     1  UNL1        0.1687
     19 C         144.5748  142.3947  159.6103 C.3     1  UNL1        0.0609
     20 C         143.8818  143.1184  158.4941 C.3     1  UNL1        0.0758
     21 N         142.7347  144.0371  158.7941 N.3     1  UNL1       -0.2737
     22 C         142.2806  144.2321  160.2103 C.3     1  UNL1        0.0758
     23 C         142.9735  143.5084  161.3265 C.3     1  UNL1        0.0609
     24 C         142.0417  144.7609  157.6778 C.3     1  UNL1        0.0575
     25 C         140.9739  145.8112  157.5964 C.3     1  UNL1        0.0160
     26 C         141.0617  145.7844  156.0992 C.3     1  UNL1        0.0028
     27 C         142.1295  144.7341  156.1806 C.3     1  UNL1        0.0160
@<TRIPOS>BOND
     1     7     8    1
     2     8     9    1
     3     8    10    1
     4    10    11    1
     5    11     1    1
     6     1     2   ar
     7     2     3   ar
     8     3     4   ar
     9     4    17    1
    10    17    18    1
    11    18    19    1
    12    19    20    1
    13    20    21    1
    14    21    24    1
    15    24    25    1
    16    25    26    1
    17    26    27    1
    18    21    22    1
    19    22    23    1
    20     4     5   ar
    21     5     6   ar
    22    11    12    2
    23    12    13    1
    24    13    14   am
    25    14    15    2
    26    14     8    1
    27     6     1   ar
    28    23    18    1
    29    27    24    1
    30    13    16    1
@<TRIPOS>MOLECULE
*****
 27 30 0 0 0
SMALL
GASTEIGER

@<TRIPOS>ATOM
      1 C         140.4542  142.9368  165.5361 C.ar    1  UNL1        0.0153
      2 C         139.5305  144.0446  165.1243 C.ar    1  UNL1        0.0043
      3 C         139.7602  144.7715  163.8324 C.ar    1  UNL1        0.0369
      4 C         140.9136  144.3905  162.9523 C.ar    1  UNL1        0.1384
      5 C         141.8373  143.2827  163.3641 C.ar    1  UNL1        0.0369
      6 C         141.6076  142.5559  164.6560 C.ar    1  UNL1        0.0043
      7 C         140.1999  141.9031  170.9000 C.3     1  UNL1        0.0095
      8 C         140.2641  142.1709  169.4255 C.3     1  UNL1        0.0761
      9 C         140.7408  143.4925  169.9513 C.3     1  UNL1        0.0095
     10 C         140.4938  142.8977  168.1336 C.3     1  UNL1        0.0560
     11 C         140.2245  142.2100  166.8280 C.2     1  UNL1        0.0767
     12 N         139.7256  140.7955  166.8143 N.2     1  UNL1       -0.1836
     13 N         139.4959  140.0687  168.1062 N.am    1  UNL1       -0.2062
     14 C         139.7652  140.7565  169.4118 C.2     1  UNL1        0.2405
     15 O         139.5354  140.0296  170.7037 O.2     1  UNL1       -0.2734
     16 H         139.1684  139.1403  168.0972 H       1  UNL1        0.1772
     17 O         141.1433  145.1173  161.6604 O.3     1  UNL1       -0.4791
     18 C         140.5043  144.6217  160.3971 C.3     1  UNL1        0.1687
     19 C         139.6411  143.3952  160.4244 C.3     1  UNL1        0.0609
     20 C         139.0021  142.8995  159.1611 C.3     1  UNL1        0.0758
     21 N         139.2263  143.6303  157.8705 N.3     1  UNL1       -0.2737
     22 C         140.0894  144.8568  157.8432 C.3     1  UNL1        0.0758
     23 C         140.7284  145.3524  159.1065 C.3     1  UNL1        0.0609
     24 C         138.5873  143.1346  156.6071 C.3     1  UNL1        0.0575
     25 C         138.7846  141.9453  155.7146 C.3     1  UNL1        0.0160
     26 C         137.6836  142.4337  154.8205 C.3     1  UNL1        0.0028
     27 C         137.4863  143.6230  155.7130 C.3     1  UNL1        0.0160
@<TRIPOS>BOND
     1     7     8    1
     2     8     9    1
     3     8    10    1
     4    10    11    1
     5    11     1    1
     6     1     2   ar
     7     2     3   ar
     8     3     4   ar
     9     4    17    1
    10    17    18    1
    11    18    19    1
    12    19    20    1
    13    20    21    1
    14    21    24    1
    15    24    25    1
    16    25    26    1
    17    26    27    1
    18    21    22    1
    19    22    23    1
    20     4     5   ar
    21     5     6   ar
    22    11    12    2
    23    12    13    1
    24    13    14   am
    25    14    15    2
    26    14     8    1
    27     6     1   ar
    28    23    18    1
    29    27    24    1
    30    13    16    1
@<TRIPOS>MOLECULE
*****
 27 30 0 0 0
SMALL
GASTEIGER

@<TRIPOS>ATOM
      1 C         141.5899  139.5463  166.9495 C.ar    1  UNL1        0.0153
      2 C         142.9560  139.0009  166.6560 C.ar    1  UNL1        0.0043
      3 C         143.2358  138.3507  165.3336 C.ar    1  UNL1        0.0369
      4 C         142.1494  138.2458  164.3046 C.ar    1  UNL1        0.1384
      5 C         140.7832  138.7912  164.5981 C.ar    1  UNL1        0.0369
      6 C         140.5035  139.4415  165.9206 C.ar    1  UNL1        0.0043
      7 C         140.1502  143.3096  170.6468 C.3     1  UNL1        0.0095
      8 C         140.5483  142.2663  169.6452 C.3     1  UNL1        0.0761
      9 C         140.2076  143.3979  168.7213 C.3     1  UNL1        0.0095
     10 C         140.8280  141.6161  168.3228 C.3     1  UNL1        0.0560
     11 C         141.3102  140.1966  168.2720 C.2     1  UNL1        0.0767
     12 N         141.5126  139.4274  169.5437 N.2     1  UNL1       -0.1836
     13 N         141.2329  140.0776  170.8662 N.am    1  UNL1       -0.2062
     14 C         140.7507  141.4971  170.9169 C.2     1  UNL1        0.2405
     15 O         140.4710  142.1474  172.2394 O.2     1  UNL1       -0.2734
     16 H         141.3658  139.5728  171.7009 H       1  UNL1        0.1772
     17 O         142.4291  137.5956  162.9821 O.3     1  UNL1       -0.4791
     18 C         142.4729  138.4248  161.7330 C.3     1  UNL1        0.1687
     19 C         141.2461  138.5631  160.8811 C.3     1  UNL1        0.0609
     20 C         141.2899  139.3923  159.6319 C.3     1  UNL1        0.0758
     21 N         142.5606  140.0833  159.2346 N.3     1  UNL1       -0.2737
     22 C         143.7874  139.9451  160.0865 C.3     1  UNL1        0.0758
     23 C         143.7436  139.1158  161.3356 C.3     1  UNL1        0.0609
     24 C         142.6044  140.9126  157.9854 C.3     1  UNL1        0.0575
     25 C         141.6654  141.1579  156.8417 C.3     1  UNL1        0.0160
     26 C         142.6664  142.0853  156.2189 C.3     1  UNL1        0.0028
     27 C         143.6054  141.8400  157.3625 C.3     1  UNL1        0.0160
@<TRIPOS>BOND
     1     7     8    1
     2     8     9    1
     3     8    10    1
     4    10    11    1
     5    11     1    1
     6     1     2   ar
     7     2     3   ar
     8     3     4   ar
     9     4    17    1
    10    17    18    1
    11    18    19    1
    12    19    20    1
    13    20    21    1
    14    21    24    1
    15    24    25    1
    16    25    26    1
    17    26    27    1
    18    21    22    1
    19    22    23    1
    20     4     5   ar
    21     5     6   ar
    22    11    12    2
    23    12    13    1
    24    13    14   am
    25    14    15    2
    26    14     8    1
    27     6     1   ar
    28    23    18    1
    29    27    24    1
    30    13    16    1
@<TRIPOS>MOLECULE
*****
 27 30 0 0 0
SMALL
GASTEIGER

@<TRIPOS>ATOM
      1 C         139.7740  139.9697  166.3010 C.ar    1  UNL1        0.0153
      2 C         138.4293  140.2309  165.6898 C.ar    1  UNL1        0.0043
      3 C         138.2163  140.0073  164.2220 C.ar    1  UNL1        0.0369
      4 C         139.3481  139.5224  163.3652 C.ar    1  UNL1        0.1384
      5 C         140.6929  139.2613  163.9764 C.ar    1  UNL1        0.0369
      6 C         140.9058  139.4849  165.4443 C.ar    1  UNL1        0.0043
      7 C         142.1207  141.4852  171.0022 C.3     1  UNL1        0.0095
      8 C         141.4636  141.0637  169.7213 C.3     1  UNL1        0.0761
      9 C         142.7426  141.6331  169.1828 C.3     1  UNL1        0.0095
     10 C         141.2506  140.8401  168.2535 C.3     1  UNL1        0.0560
     11 C         139.9869  140.1934  167.7689 C.2     1  UNL1        0.0767
     12 N         138.9361  139.7704  168.7522 N.2     1  UNL1       -0.1836
     13 N         139.1491  139.9940  170.2200 N.am    1  UNL1       -0.2062
     14 C         140.4128  140.6407  170.7046 C.2     1  UNL1        0.2405
     15 O         140.6257  140.8644  172.1725 O.2     1  UNL1       -0.2734
     16 H         138.4594  139.7164  170.8654 H       1  UNL1        0.1772
     17 O         139.1352  139.2988  161.8974 O.3     1  UNL1       -0.4791
     18 C         139.2840  140.4401  160.9355 C.3     1  UNL1        0.1687
     19 C         138.6155  140.3823  159.5939 C.3     1  UNL1        0.0609
     20 C         138.7643  141.5236  158.6320 C.3     1  UNL1        0.0758
     21 N         139.5815  142.7228  159.0117 N.3     1  UNL1       -0.2737
     22 C         140.2499  142.7806  160.3532 C.3     1  UNL1        0.0758
     23 C         140.1012  141.6393  161.3151 C.3     1  UNL1        0.0609
     24 C         139.7303  143.8641  158.0498 C.3     1  UNL1        0.0575
     25 C         139.4509  144.0639  156.5896 C.3     1  UNL1        0.0160
     26 C         139.9407  145.4782  156.6894 C.3     1  UNL1        0.0028
     27 C         140.2201  145.2784  158.1496 C.3     1  UNL1        0.0160
@<TRIPOS>BOND
     1     7     8    1
     2     8     9    1
     3     8    10    1
     4    10    11    1
     5    11     1    1
     6     1     2   ar
     7     2     3   ar
     8     3     4   ar
     9     4    17    1
    10    17    18    1
    11    18    19    1
    12    19    20    1
    13    20    21    1
    14    21    24    1
    15    24    25    1
    16    25    26    1
    17    26    27    1
    18    21    22    1
    19    22    23    1
    20     4     5   ar
    21     5     6   ar
    22    11    12    2
    23    12    13    1
    24    13    14   am
    25    14    15    2
    26    14     8    1
    27     6     1   ar
    28    23    18    1
    29    27    24    1
    30    13    16    1
@<TRIPOS>MOLECULE
*****
 27 30 0 0 0
SMALL
GASTEIGER

@<TRIPOS>ATOM
      1 C         140.0129  139.6873  165.5566 C.ar    1  UNL1        0.0153
      2 C         140.4127  138.8006  164.4147 C.ar    1  UNL1        0.0043
      3 C         139.6203  138.8146  163.1412 C.ar    1  UNL1        0.0369
      4 C         138.4280  139.7153  163.0096 C.ar    1  UNL1        0.1384
      5 C         138.0281  140.6019  164.1515 C.ar    1  UNL1        0.0369
      6 C         138.8206  140.5879  165.4251 C.ar    1  UNL1        0.0043
      7 C         141.3054  140.2879  170.8362 C.3     1  UNL1        0.0095
      8 C         140.9666  140.1173  169.3849 C.3     1  UNL1        0.0761
      9 C         139.6605  140.6487  169.8967 C.3     1  UNL1        0.0095
     10 C         140.1741  140.1313  168.1114 C.3     1  UNL1        0.0560
     11 C         140.8054  139.6732  166.8302 C.2     1  UNL1        0.0767
     12 N         142.2291  139.2011  166.8224 N.2     1  UNL1       -0.1836
     13 N         143.0216  139.1871  168.0959 N.am    1  UNL1       -0.2062
     14 C         142.3903  139.6452  169.3771 C.2     1  UNL1        0.2405
     15 O         143.1828  139.6312  170.6507 O.2     1  UNL1       -0.2734
     16 H         143.9560  138.8773  168.0908 H       1  UNL1        0.1772
     17 O         137.6355  139.7292  161.7361 O.3     1  UNL1       -0.4791
     18 C         138.0204  140.6587  160.6235 C.3     1  UNL1        0.1687
     19 C         138.6445  141.9861  160.9371 C.3     1  UNL1        0.0609
     20 C         139.0293  142.9155  159.8244 C.3     1  UNL1        0.0758
     21 N         138.7900  142.5176  158.3981 N.3     1  UNL1       -0.2737
     22 C         138.1659  141.1902  158.0845 C.3     1  UNL1        0.0758
     23 C         137.7811  140.2607  159.1972 C.3     1  UNL1        0.0609
     24 C         139.1749  143.4470  157.2855 C.3     1  UNL1        0.0575
     25 C         139.9609  144.7212  157.1917 C.3     1  UNL1        0.0160
     26 C         139.7191  144.7615  155.7119 C.3     1  UNL1        0.0028
     27 C         138.9331  143.4873  155.8056 C.3     1  UNL1        0.0160
@<TRIPOS>BOND
     1     7     8    1
     2     8     9    1
     3     8    10    1
     4    10    11    1
     5    11     1    1
     6     1     2   ar
     7     2     3   ar
     8     3     4   ar
     9     4    17    1
    10    17    18    1
    11    18    19    1
    12    19    20    1
    13    20    21    1
    14    21    24    1
    15    24    25    1
    16    25    26    1
    17    26    27    1
    18    21    22    1
    19    22    23    1
    20     4     5   ar
    21     5     6   ar
    22    11    12    2
    23    12    13    1
    24    13    14   am
    25    14    15    2
    26    14     8    1
    27     6     1   ar
    28    23    18    1
    29    27    24    1
    30    13    16    1
