@<TRIPOS>MOLECULE
*****
 33 36 0 0 0
SMALL
GASTEIGER

@<TRIPOS>ATOM
      1 C         141.1067  138.7255  158.5106 C.ar    1  UNL1        0.1447
      2 C         142.1015  138.3583  159.5716 C.ar    1  UNL1        0.0333
      3 C         141.6950  138.3647  161.0154 C.ar    1  UNL1       -0.0177
      4 C         142.6899  137.9975  162.0763 C.3     1  UNL1        0.0312
      5 C         140.2937  138.7383  161.3984 C.ar    1  UNL1        0.0105
      6 C         139.2988  139.1054  160.3375 C.ar    1  UNL1       -0.0177
      7 C         137.8975  139.4790  160.7205 C.3     1  UNL1        0.0312
      8 C         139.7053  139.0991  158.8936 C.ar    1  UNL1        0.0333
      9 C         139.8872  138.7446  162.8423 C.ar    1  UNL1        0.0891
     10 C         139.1579  137.6462  163.5577 C.ar    1  UNL1        0.0572
     11 S         138.9586  138.0732  164.9818 S.2     1  UNL1       -0.0508
     12 C         139.5646  139.4355  165.1464 C.ar    1  UNL1        0.1658
     13 N         140.1385  139.8504  163.8241 N.ar    1  UNL1       -0.2239
     14 N         139.5920  140.2412  166.4112 N.am    1  UNL1       -0.2606
     15 C         140.7634  140.1364  167.3423 C.2     1  UNL1        0.2511
     16 O         141.9075  139.2256  167.0083 O.2     1  UNL1       -0.2698
     17 H         138.8411  140.8390  166.6304 H       1  UNL1        0.1571
     18 C         140.7908  140.9421  168.6071 C.ar    1  UNL1        0.0591
     19 C         141.1036  140.2760  169.9141 C.ar    1  UNL1        0.0254
     20 C         141.1310  141.0819  171.1790 C.ar    1  UNL1        0.1014
     21 N         140.8455  142.5538  171.1368 N.ar    1  UNL1       -0.2165
     22 C         140.5327  143.2200  169.8298 C.ar    1  UNL1        0.2225
     23 F         140.2472  144.6920  169.7876 F       1  UNL1       -0.1832
     24 C         140.5053  142.4141  168.5649 C.ar    1  UNL1        0.0542
     25 O         141.5132  138.7192  157.0668 O.3     1  UNL1       -0.4535
     26 C         142.6570  134.8529  155.0684 C.ar    1  UNL1        0.1389
     27 C         141.2102  135.1944  155.2685 C.ar    1  UNL1        0.0400
     28 C         140.8289  136.4831  155.9347 C.ar    1  UNL1        0.0406
     29 C         141.8945  137.4304  156.4007 C.ar    1  UNL1        0.1455
     30 C         143.3413  137.0890  156.2005 C.ar    1  UNL1        0.0406
     31 C         143.7225  135.8002  155.5344 C.ar    1  UNL1        0.0400
     32 C         143.5354  132.4129  155.2252 C.3     1  UNL1        0.2525
     33 O         143.0383  133.5642  154.4022 O.3     1  UNL1       -0.4714
@<TRIPOS>BOND
     1    32    33    1
     2    33    26    1
     3    26    27   ar
     4    27    28   ar
     5    28    29   ar
     6    29    25    1
     7    25     1    1
     8     1     2   ar
     9     2     3   ar
    10     3     4    1
    11     3     5   ar
    12     5     9    1
    13     9    10   ar
    14    10    11   ar
    15    11    12   ar
    16    12    14    1
    17    14    15   am
    18    15    16    2
    19    15    18    1
    20    18    19   ar
    21    19    20   ar
    22    20    21   ar
    23    21    22   ar
    24    22    23    1
    25    22    24   ar
    26    12    13   ar
    27     5     6   ar
    28     6     7    1
    29     6     8   ar
    30    29    30   ar
    31    30    31   ar
    32    31    26   ar
    33     8     1   ar
    34    13     9   ar
    35    24    18   ar
    36    14    17    1
@<TRIPOS>MOLECULE
*****
 33 36 0 0 0
SMALL
GASTEIGER

@<TRIPOS>ATOM
      1 C         141.3425  138.5974  158.6732 C.ar    1  UNL1        0.1447
      2 C         139.9158  138.9368  158.9884 C.ar    1  UNL1        0.0333
      3 C         139.4433  138.9433  160.4120 C.ar    1  UNL1       -0.0177
      4 C         138.0166  139.2827  160.7273 C.3     1  UNL1        0.0312
      5 C         140.3975  138.6103  161.5205 C.ar    1  UNL1        0.0105
      6 C         141.8242  138.2709  161.2053 C.ar    1  UNL1       -0.0177
      7 C         142.7784  137.9379  162.3137 C.3     1  UNL1        0.0312
      8 C         142.2967  138.2645  159.7816 C.ar    1  UNL1        0.0333
      9 C         139.9250  138.6167  162.9441 C.ar    1  UNL1        0.0891
     10 C         139.1373  137.5316  163.6164 C.ar    1  UNL1        0.0572
     11 S         138.8826  137.9536  165.0332 S.2     1  UNL1       -0.0508
     12 C         139.5130  139.2995  165.2364 C.ar    1  UNL1        0.1658
     13 N         140.1572  139.7093  163.9453 N.ar    1  UNL1       -0.2239
     14 N         139.5012  140.0957  166.5075 N.am    1  UNL1       -0.2606
     15 C         140.7200  140.1319  167.3812 C.2     1  UNL1        0.2511
     16 O         141.9505  139.3718  166.9838 O.2     1  UNL1       -0.2698
     17 H         138.6936  140.5946  166.7683 H       1  UNL1        0.1571
     18 C         140.7082  140.9282  168.6523 C.ar    1  UNL1        0.0591
     19 C         140.8850  140.2372  169.9719 C.ar    1  UNL1        0.0254
     20 C         140.8732  141.0334  171.2430 C.ar    1  UNL1        0.1014
     21 N         140.6847  142.5208  171.1946 N.ar    1  UNL1       -0.2165
     22 C         140.5079  143.2118  169.8751 C.ar    1  UNL1        0.2225
     23 F         140.3194  144.6992  169.8266 F       1  UNL1       -0.1832
     24 C         140.5197  142.4155  168.6039 C.ar    1  UNL1        0.0542
     25 O         141.8150  138.5910  157.2496 O.3     1  UNL1       -0.4535
     26 C         142.3033  134.6910  155.0585 C.ar    1  UNL1        0.1389
     27 C         143.4832  135.3245  155.7341 C.ar    1  UNL1        0.0400
     28 C         143.3204  136.6245  156.4644 C.ar    1  UNL1        0.0406
     29 C         141.9778  137.2910  156.5192 C.ar    1  UNL1        0.1455
     30 C         140.7979  136.6575  155.8437 C.ar    1  UNL1        0.0406
     31 C         140.9607  135.3574  155.1133 C.ar    1  UNL1        0.0400
     32 C         143.3787  132.3331  154.8741 C.3     1  UNL1        0.2525
     33 O         142.4661  133.3909  154.3281 O.3     1  UNL1       -0.4714
@<TRIPOS>BOND
     1    32    33    1
     2    33    26    1
     3    26    27   ar
     4    27    28   ar
     5    28    29   ar
     6    29    25    1
     7    25     1    1
     8     1     2   ar
     9     2     3   ar
    10     3     4    1
    11     3     5   ar
    12     5     9    1
    13     9    10   ar
    14    10    11   ar
    15    11    12   ar
    16    12    14    1
    17    14    15   am
    18    15    16    2
    19    15    18    1
    20    18    19   ar
    21    19    20   ar
    22    20    21   ar
    23    21    22   ar
    24    22    23    1
    25    22    24   ar
    26    12    13   ar
    27     5     6   ar
    28     6     7    1
    29     6     8   ar
    30    29    30   ar
    31    30    31   ar
    32    31    26   ar
    33     8     1   ar
    34    13     9   ar
    35    24    18   ar
    36    14    17    1
@<TRIPOS>MOLECULE
*****
 33 36 0 0 0
SMALL
GASTEIGER

@<TRIPOS>ATOM
      1 C         138.6260  139.5224  165.5246 C.ar    1  UNL1        0.1447
      2 C         138.0831  140.8059  164.9697 C.ar    1  UNL1        0.0333
      3 C         138.1170  141.0577  163.4914 C.ar    1  UNL1       -0.0177
      4 C         137.5741  142.3412  162.9365 C.3     1  UNL1        0.0312
      5 C         138.6939  140.0260  162.5679 C.ar    1  UNL1        0.0105
      6 C         139.2368  138.7425  163.1228 C.ar    1  UNL1       -0.0177
      7 C         139.8137  137.7108  162.1993 C.3     1  UNL1        0.0312
      8 C         139.2029  138.4907  164.6011 C.ar    1  UNL1        0.0333
      9 C         138.7278  140.2778  161.0896 C.ar    1  UNL1        0.0891
     10 C         139.8643  140.8896  160.3253 C.ar    1  UNL1        0.0572
     11 S         139.4701  140.9519  158.8793 S.2     1  UNL1       -0.0508
     12 C         138.0899  140.3786  158.7500 C.ar    1  UNL1        0.1658
     13 N         137.6312  139.9620  160.1160 N.ar    1  UNL1       -0.2239
     14 N         137.3062  140.2454  157.4781 N.am    1  UNL1       -0.2606
     15 C         136.9520  141.4675  156.6838 C.2     1  UNL1        0.2511
     16 O         137.3815  142.8230  157.1616 O.2     1  UNL1       -0.2698
     17 H         137.0243  139.3558  157.1645 H       1  UNL1        0.1571
     18 C         136.1683  141.3343  155.4118 C.ar    1  UNL1        0.0591
     19 C         136.8784  141.0674  154.1178 C.ar    1  UNL1        0.0254
     20 C         136.0946  140.9342  152.8458 C.ar    1  UNL1        0.1014
     21 N         134.6007  141.0678  152.8678 N.ar    1  UNL1       -0.2165
     22 C         133.8906  141.3347  154.1619 C.ar    1  UNL1        0.2225
     23 F         132.3967  141.4683  154.1839 F       1  UNL1       -0.1832
     24 C         134.6744  141.4679  155.4339 C.ar    1  UNL1        0.0542
     25 O         138.5921  139.2706  167.0029 O.3     1  UNL1       -0.4535
     26 C         141.5938  141.2687  169.6951 C.ar    1  UNL1        0.1389
     27 C         141.9942  140.8366  168.3157 C.ar    1  UNL1        0.0400
     28 C         140.9937  140.1706  167.4183 C.ar    1  UNL1        0.0406
     29 C         139.5927  139.9367  167.9003 C.ar    1  UNL1        0.1455
     30 C         139.1922  140.3688  169.2797 C.ar    1  UNL1        0.0406
     31 C         140.1928  141.0348  170.1771 C.ar    1  UNL1        0.0400
     32 C         143.9201  142.3717  170.0436 C.3     1  UNL1        0.2525
     33 O         142.5943  141.9347  170.5925 O.3     1  UNL1       -0.4714
@<TRIPOS>BOND
     1    32    33    1
     2    33    26    1
     3    26    27   ar
     4    27    28   ar
     5    28    29   ar
     6    29    25    1
     7    25     1    1
     8     1     2   ar
     9     2     3   ar
    10     3     4    1
    11     3     5   ar
    12     5     9    1
    13     9    10   ar
    14    10    11   ar
    15    11    12   ar
    16    12    14    1
    17    14    15   am
    18    15    16    2
    19    15    18    1
    20    18    19   ar
    21    19    20   ar
    22    20    21   ar
    23    21    22   ar
    24    22    23    1
    25    22    24   ar
    26    12    13   ar
    27     5     6   ar
    28     6     7    1
    29     6     8   ar
    30    29    30   ar
    31    30    31   ar
    32    31    26   ar
    33     8     1   ar
    34    13     9   ar
    35    24    18   ar
    36    14    17    1
@<TRIPOS>MOLECULE
*****
 33 36 0 0 0
SMALL
GASTEIGER

@<TRIPOS>ATOM
      1 C         143.2103  138.7625  165.7438 C.ar    1  UNL1        0.1447
      2 C         142.1184  137.9683  165.0903 C.ar    1  UNL1        0.0333
      3 C         141.9453  138.0153  163.6011 C.ar    1  UNL1       -0.0177
      4 C         140.8533  137.2211  162.9475 C.3     1  UNL1        0.0312
      5 C         142.8640  138.8564  162.7653 C.ar    1  UNL1        0.0105
      6 C         143.9559  139.6505  163.4188 C.ar    1  UNL1       -0.0177
      7 C         144.8746  140.4916  162.5830 C.3     1  UNL1        0.0312
      8 C         144.1291  139.6036  164.9081 C.ar    1  UNL1        0.0333
      9 C         142.6908  138.9033  161.2761 C.ar    1  UNL1        0.0891
     10 C         142.1612  140.0634  160.4862 C.ar    1  UNL1        0.0572
     11 S         142.1599  139.6755  159.0372 S.2     1  UNL1       -0.0508
     12 C         142.6886  138.2757  158.9316 C.ar    1  UNL1        0.1658
     13 N         143.0167  137.7985  160.3153 N.ar    1  UNL1       -0.2239
     14 N         142.8593  137.4910  157.6648 N.am    1  UNL1       -0.2606
     15 C         141.6564  137.0879  156.8642 C.2     1  UNL1        0.2511
     16 O         140.2829  137.4698  157.3307 O.2     1  UNL1       -0.2698
     17 H         143.7608  137.2404  157.3586 H       1  UNL1        0.1571
     18 C         141.8271  136.3032  155.5974 C.ar    1  UNL1        0.0591
     19 C         141.4252  136.9040  154.2831 C.ar    1  UNL1        0.0254
     20 C         141.5959  136.1193  153.0162 C.ar    1  UNL1        0.1014
     21 N         142.1684  134.7336  153.0636 N.ar    1  UNL1       -0.2165
     22 C         142.5702  134.1328  154.3780 C.ar    1  UNL1        0.2225
     23 F         143.1428  132.7471  154.4255 F       1  UNL1       -0.1832
     24 C         142.3996  134.9176  155.6449 C.ar    1  UNL1        0.0542
     25 O         143.3835  138.7156  167.2330 O.3     1  UNL1       -0.4535
     26 C         140.5099  140.9209  169.9030 C.ar    1  UNL1        0.1389
     27 C         140.4948  141.1630  168.4228 C.ar    1  UNL1        0.0400
     28 C         141.4526  140.4278  167.5328 C.ar    1  UNL1        0.0406
     29 C         142.4256  139.4507  168.1230 C.ar    1  UNL1        0.1455
     30 C         142.4407  139.2087  169.6032 C.ar    1  UNL1        0.0406
     31 C         141.4829  139.9438  170.4932 C.ar    1  UNL1        0.0400
     32 C         139.5975  143.1534  170.8692 C.3     1  UNL1        0.2525
     33 O         139.5520  141.6560  170.7930 O.3     1  UNL1       -0.4714
@<TRIPOS>BOND
     1    32    33    1
     2    33    26    1
     3    26    27   ar
     4    27    28   ar
     5    28    29   ar
     6    29    25    1
     7    25     1    1
     8     1     2   ar
     9     2     3   ar
    10     3     4    1
    11     3     5   ar
    12     5     9    1
    13     9    10   ar
    14    10    11   ar
    15    11    12   ar
    16    12    14    1
    17    14    15   am
    18    15    16    2
    19    15    18    1
    20    18    19   ar
    21    19    20   ar
    22    20    21   ar
    23    21    22   ar
    24    22    23    1
    25    22    24   ar
    26    12    13   ar
    27     5     6   ar
    28     6     7    1
    29     6     8   ar
    30    29    30   ar
    31    30    31   ar
    32    31    26   ar
    33     8     1   ar
    34    13     9   ar
    35    24    18   ar
    36    14    17    1
@<TRIPOS>MOLECULE
*****
 33 36 0 0 0
SMALL
GASTEIGER

@<TRIPOS>ATOM
      1 C         143.6566  142.5055  166.1846 C.ar    1  UNL1        0.1447
      2 C         143.5710  141.2138  165.4268 C.ar    1  UNL1        0.0333
      3 C         143.5421  141.2245  163.9271 C.ar    1  UNL1       -0.0177
      4 C         143.4565  139.9328  163.1693 C.3     1  UNL1        0.0312
      5 C         143.5988  142.5270  163.1852 C.ar    1  UNL1        0.0105
      6 C         143.6844  143.8186  163.9429 C.ar    1  UNL1       -0.0177
      7 C         143.7411  145.1211  163.2010 C.3     1  UNL1        0.0312
      8 C         143.7133  143.8079  165.4426 C.ar    1  UNL1        0.0333
      9 C         143.5699  142.5377  161.6854 C.ar    1  UNL1        0.0891
     10 C         142.3431  142.4517  160.8267 C.ar    1  UNL1        0.0572
     11 S         142.7777  142.4971  159.3917 S.2     1  UNL1       -0.0508
     12 C         144.2731  142.6112  159.3637 C.ar    1  UNL1        0.1658
     13 N         144.7627  142.6363  160.7813 N.ar    1  UNL1       -0.2239
     14 N         145.1286  142.6869  158.1340 N.am    1  UNL1       -0.2606
     15 C         145.3273  141.4683  157.2822 C.2     1  UNL1        0.2511
     16 O         144.6703  140.1739  157.6602 O.2     1  UNL1       -0.2698
     17 H         145.5599  143.5365  157.8859 H       1  UNL1        0.1571
     18 C         146.1828  141.5440  156.0525 C.ar    1  UNL1        0.0591
     19 C         147.5398  142.1795  156.1210 C.ar    1  UNL1        0.0254
     20 C         148.3954  142.2552  154.8912 C.ar    1  UNL1        0.1014
     21 N         147.8940  141.6954  153.5930 N.ar    1  UNL1       -0.2165
     22 C         146.5370  141.0600  153.5246 C.ar    1  UNL1        0.2225
     23 F         146.0355  140.5002  152.2264 F       1  UNL1       -0.1832
     24 C         145.6814  140.9843  154.7544 C.ar    1  UNL1        0.0542
     25 O         143.6855  142.4948  167.6842 O.3     1  UNL1       -0.4535
     26 C         140.3574  140.5246  169.9847 C.ar    1  UNL1        0.1389
     27 C         141.6359  139.7822  169.7315 C.ar    1  UNL1        0.0400
     28 C         142.7453  140.4389  168.9646 C.ar    1  UNL1        0.0406
     29 C         142.5761  141.8380  168.4511 C.ar    1  UNL1        0.1455
     30 C         141.2976  142.5804  168.7043 C.ar    1  UNL1        0.0406
     31 C         140.1882  141.9237  169.4711 C.ar    1  UNL1        0.0400
     32 C         137.8838  139.7456  170.1403 C.3     1  UNL1        0.2525
     33 O         139.2480  139.8679  170.7516 O.3     1  UNL1       -0.4714
@<TRIPOS>BOND
     1    32    33    1
     2    33    26    1
     3    26    27   ar
     4    27    28   ar
     5    28    29   ar
     6    29    25    1
     7    25     1    1
     8     1     2   ar
     9     2     3   ar
    10     3     4    1
    11     3     5   ar
    12     5     9    1
    13     9    10   ar
    14    10    11   ar
    15    11    12   ar
    16    12    14    1
    17    14    15   am
    18    15    16    2
    19    15    18    1
    20    18    19   ar
    21    19    20   ar
    22    20    21   ar
    23    21    22   ar
    24    22    23    1
    25    22    24   ar
    26    12    13   ar
    27     5     6   ar
    28     6     7    1
    29     6     8   ar
    30    29    30   ar
    31    30    31   ar
    32    31    26   ar
    33     8     1   ar
    34    13     9   ar
    35    24    18   ar
    36    14    17    1
@<TRIPOS>MOLECULE
*****
 33 36 0 0 0
SMALL
GASTEIGER

@<TRIPOS>ATOM
      1 C         141.2130  138.7282  158.6333 C.ar    1  UNL1        0.1447
      2 C         139.8116  139.1354  158.9804 C.ar    1  UNL1        0.0333
      3 C         139.3587  139.1209  160.4103 C.ar    1  UNL1       -0.0177
      4 C         137.9574  139.5282  160.7574 C.3     1  UNL1        0.0312
      5 C         140.3072  138.6991  161.4931 C.ar    1  UNL1        0.0105
      6 C         141.7084  138.2919  161.1461 C.ar    1  UNL1       -0.0177
      7 C         142.6569  137.8701  162.2290 C.3     1  UNL1        0.0312
      8 C         142.1614  138.3064  159.7161 C.ar    1  UNL1        0.0333
      9 C         139.8542  138.6846  162.9231 C.ar    1  UNL1        0.0891
     10 C         139.0893  137.5827  163.5944 C.ar    1  UNL1        0.0572
     11 S         138.8490  137.9865  165.0190 S.2     1  UNL1       -0.0508
     12 C         139.4654  139.3380  165.2280 C.ar    1  UNL1        0.1658
     13 N         140.0866  139.7694  163.9326 N.ar    1  UNL1       -0.2239
     14 N         139.4613  140.1206  166.5075 N.am    1  UNL1       -0.2606
     15 C         140.6927  140.1664  167.3628 C.2     1  UNL1        0.2511
     16 O         141.9284  139.4295  166.9383 O.2     1  UNL1       -0.2698
     17 H         138.6502  140.6042  166.7861 H       1  UNL1        0.1571
     18 C         140.6886  140.9490  168.6424 C.ar    1  UNL1        0.0591
     19 C         140.8575  140.2420  169.9545 C.ar    1  UNL1        0.0254
     20 C         140.8534  141.0246  171.2341 C.ar    1  UNL1        0.1014
     21 N         140.6803  142.5142  171.2017 N.ar    1  UNL1       -0.2165
     22 C         140.5114  143.2212  169.8896 C.ar    1  UNL1        0.2225
     23 F         140.3383  144.7109  169.8571 F       1  UNL1       -0.1832
     24 C         140.5155  142.4386  168.6099 C.ar    1  UNL1        0.0542
     25 O         141.6658  138.7427  157.2034 O.3     1  UNL1       -0.4535
     26 C         145.5648  140.6986  156.0978 C.ar    1  UNL1        0.1389
     27 C         145.1188  139.4579  155.3825 C.ar    1  UNL1        0.0400
     28 C         143.8191  138.8059  155.7511 C.ar    1  UNL1        0.0406
     29 C         142.9655  139.3947  156.8349 C.ar    1  UNL1        0.1455
     30 C         143.4115  140.6354  157.5501 C.ar    1  UNL1        0.0406
     31 C         144.7112  141.2874  157.1816 C.ar    1  UNL1        0.0400
     32 C         147.3284  142.5698  156.4696 C.3     1  UNL1        0.2525
     33 O         146.8645  141.3506  155.7293 O.3     1  UNL1       -0.4714
@<TRIPOS>BOND
     1    32    33    1
     2    33    26    1
     3    26    27   ar
     4    27    28   ar
     5    28    29   ar
     6    29    25    1
     7    25     1    1
     8     1     2   ar
     9     2     3   ar
    10     3     4    1
    11     3     5   ar
    12     5     9    1
    13     9    10   ar
    14    10    11   ar
    15    11    12   ar
    16    12    14    1
    17    14    15   am
    18    15    16    2
    19    15    18    1
    20    18    19   ar
    21    19    20   ar
    22    20    21   ar
    23    21    22   ar
    24    22    23    1
    25    22    24   ar
    26    12    13   ar
    27     5     6   ar
    28     6     7    1
    29     6     8   ar
    30    29    30   ar
    31    30    31   ar
    32    31    26   ar
    33     8     1   ar
    34    13     9   ar
    35    24    18   ar
    36    14    17    1
@<TRIPOS>MOLECULE
*****
 33 36 0 0 0
SMALL
GASTEIGER

@<TRIPOS>ATOM
      1 C         141.8095  137.7809  157.4795 C.ar    1  UNL1        0.1447
      2 C         142.9650  138.0389  158.4006 C.ar    1  UNL1        0.0333
      3 C         142.7501  138.7890  159.6816 C.ar    1  UNL1       -0.0177
      4 C         143.9056  139.0469  160.6027 C.3     1  UNL1        0.0312
      5 C         141.3797  139.2813  160.0416 C.ar    1  UNL1        0.0105
      6 C         140.2242  139.0234  159.1206 C.ar    1  UNL1       -0.0177
      7 C         138.8537  139.5157  159.4806 C.3     1  UNL1        0.0312
      8 C         140.4391  138.2732  157.8395 C.ar    1  UNL1        0.0333
      9 C         141.1648  140.0315  161.3227 C.ar    1  UNL1        0.0891
     10 C         141.2305  141.5202  161.4942 C.ar    1  UNL1        0.0572
     11 S         140.9528  141.8336  162.9347 S.2     1  UNL1       -0.0508
     12 C         140.7154  140.5384  163.6533 C.ar    1  UNL1        0.1658
     13 N         140.8464  139.4247  162.6570 N.ar    1  UNL1       -0.2239
     14 N         140.4020  140.3841  165.1120 N.am    1  UNL1       -0.2606
     15 C         141.5091  140.1483  166.0962 C.2     1  UNL1        0.2511
     16 O         142.9297  140.0669  165.6216 O.2     1  UNL1       -0.2698
     17 H         139.4696  140.4376  165.4234 H       1  UNL1        0.1571
     18 C         141.1958  139.9940  167.5549 C.ar    1  UNL1        0.0591
     19 C         142.2715  139.5761  168.5130 C.ar    1  UNL1        0.0254
     20 C         141.9581  139.4218  169.9718 C.ar    1  UNL1        0.1014
     21 N         140.5689  139.6854  170.4724 N.ar    1  UNL1       -0.2165
     22 C         139.4932  140.1033  169.5143 C.ar    1  UNL1        0.2225
     23 F         138.1039  140.3670  170.0149 F       1  UNL1       -0.1832
     24 C         139.8066  140.2577  168.0555 C.ar    1  UNL1        0.0542
     25 O         142.0244  137.0308  156.1985 O.3     1  UNL1       -0.4535
     26 C         142.4337  132.5498  156.2567 C.ar    1  UNL1        0.1389
     27 C         141.4637  133.2022  155.3167 C.ar    1  UNL1        0.0400
     28 C         141.3273  134.6959  155.2973 C.ar    1  UNL1        0.0406
     29 C         142.1608  135.5371  156.2179 C.ar    1  UNL1        0.1455
     30 C         143.1307  134.8847  157.1579 C.ar    1  UNL1        0.0406
     31 C         143.2672  133.3910  157.1773 C.ar    1  UNL1        0.0400
     32 C         143.7440  130.4190  156.9585 C.3     1  UNL1        0.2525
     33 O         142.5701  131.0561  156.2760 O.3     1  UNL1       -0.4714
@<TRIPOS>BOND
     1    32    33    1
     2    33    26    1
     3    26    27   ar
     4    27    28   ar
     5    28    29   ar
     6    29    25    1
     7    25     1    1
     8     1     2   ar
     9     2     3   ar
    10     3     4    1
    11     3     5   ar
    12     5     9    1
    13     9    10   ar
    14    10    11   ar
    15    11    12   ar
    16    12    14    1
    17    14    15   am
    18    15    16    2
    19    15    18    1
    20    18    19   ar
    21    19    20   ar
    22    20    21   ar
    23    21    22   ar
    24    22    23    1
    25    22    24   ar
    26    12    13   ar
    27     5     6   ar
    28     6     7    1
    29     6     8   ar
    30    29    30   ar
    31    30    31   ar
    32    31    26   ar
    33     8     1   ar
    34    13     9   ar
    35    24    18   ar
    36    14    17    1
@<TRIPOS>MOLECULE
*****
 33 36 0 0 0
SMALL
GASTEIGER

@<TRIPOS>ATOM
      1 C         142.9038  139.5940  164.7702 C.ar    1  UNL1        0.1447
      2 C         143.5262  140.9589  164.7626 C.ar    1  UNL1        0.0333
      3 C         143.7171  141.6889  163.4662 C.ar    1  UNL1       -0.0177
      4 C         144.3395  143.0537  163.4587 C.3     1  UNL1        0.0312
      5 C         143.2856  141.0542  162.1774 C.ar    1  UNL1        0.0105
      6 C         142.6632  139.6895  162.1850 C.ar    1  UNL1       -0.0177
      7 C         142.2317  139.0548  160.8962 C.3     1  UNL1        0.0312
      8 C         142.4723  138.9594  163.4814 C.ar    1  UNL1        0.0333
      9 C         143.4765  141.7844  160.8811 C.ar    1  UNL1        0.0891
     10 C         142.4693  142.6727  160.2130 C.ar    1  UNL1        0.0572
     11 S         143.0784  143.1918  158.9442 S.2     1  UNL1       -0.0508
     12 C         144.4621  142.6241  158.8283 C.ar    1  UNL1        0.1658
     13 N         144.7081  141.7544  160.0253 N.ar    1  UNL1       -0.2239
     14 N         145.4297  142.8812  157.7114 N.am    1  UNL1       -0.2606
     15 C         145.8468  141.7594  156.8072 C.2     1  UNL1        0.2511
     16 O         145.2961  140.3804  157.0199 O.2     1  UNL1       -0.2698
     17 H         145.7911  143.7862  157.5718 H       1  UNL1        0.1571
     18 C         146.8144  142.0164  155.6903 C.ar    1  UNL1        0.0591
     19 C         146.3146  142.4995  154.3612 C.ar    1  UNL1        0.0254
     20 C         147.2823  142.7566  153.2443 C.ar    1  UNL1        0.1014
     21 N         148.7499  142.5305  153.4565 N.ar    1  UNL1       -0.2165
     22 C         149.2497  142.0474  154.7857 C.ar    1  UNL1        0.2225
     23 F         150.7174  141.8214  154.9980 F       1  UNL1       -0.1832
     24 C         148.2820  141.7904  155.9026 C.ar    1  UNL1        0.0542
     25 O         142.7129  138.8640  166.0665 O.3     1  UNL1       -0.4535
     26 C         140.4237  140.7992  169.4228 C.ar    1  UNL1        0.1389
     27 C         139.7690  140.5941  168.0889 C.ar    1  UNL1        0.0400
     28 C         140.5321  139.9491  166.9701 C.ar    1  UNL1        0.0406
     29 C         141.9499  139.5090  167.1853 C.ar    1  UNL1        0.1455
     30 C         142.6045  139.7141  168.5191 C.ar    1  UNL1        0.0406
     31 C         141.8415  140.3591  169.6379 C.ar    1  UNL1        0.0400
     32 C         139.7453  142.9273  170.7497 C.3     1  UNL1        0.2525
     33 O         139.6606  141.4442  170.5415 O.3     1  UNL1       -0.4714
@<TRIPOS>BOND
     1    32    33    1
     2    33    26    1
     3    26    27   ar
     4    27    28   ar
     5    28    29   ar
     6    29    25    1
     7    25     1    1
     8     1     2   ar
     9     2     3   ar
    10     3     4    1
    11     3     5   ar
    12     5     9    1
    13     9    10   ar
    14    10    11   ar
    15    11    12   ar
    16    12    14    1
    17    14    15   am
    18    15    16    2
    19    15    18    1
    20    18    19   ar
    21    19    20   ar
    22    20    21   ar
    23    21    22   ar
    24    22    23    1
    25    22    24   ar
    26    12    13   ar
    27     5     6   ar
    28     6     7    1
    29     6     8   ar
    30    29    30   ar
    31    30    31   ar
    32    31    26   ar
    33     8     1   ar
    34    13     9   ar
    35    24    18   ar
    36    14    17    1
@<TRIPOS>MOLECULE
*****
 33 36 0 0 0
SMALL
GASTEIGER

@<TRIPOS>ATOM
      1 C         142.5662  139.2417  157.9145 C.ar    1  UNL1        0.1447
      2 C         142.1785  138.2916  159.0086 C.ar    1  UNL1        0.0333
      3 C         142.3954  138.6713  160.4435 C.ar    1  UNL1       -0.0177
      4 C         142.0077  137.7212  161.5376 C.3     1  UNL1        0.0312
      5 C         143.0000  140.0011  160.7842 C.ar    1  UNL1        0.0105
      6 C         143.3877  140.9512  159.6902 C.ar    1  UNL1       -0.0177
      7 C         143.9923  142.2810  160.0310 C.3     1  UNL1        0.0312
      8 C         143.1708  140.5715  158.2553 C.ar    1  UNL1        0.0333
      9 C         143.2169  140.3807  162.2192 C.ar    1  UNL1        0.0891
     10 C         144.5188  140.3153  162.9613 C.ar    1  UNL1        0.0572
     11 S         144.2765  140.7866  164.3646 S.2     1  UNL1       -0.0508
     12 C         142.8248  141.1433  164.4897 C.ar    1  UNL1        0.1658
     13 N         142.1700  140.8924  163.1637 N.ar    1  UNL1       -0.2239
     14 N         142.1471  141.6600  165.7240 N.am    1  UNL1       -0.2606
     15 C         141.5157  140.7017  166.6900 C.2     1  UNL1        0.2511
     16 O         141.5622  139.2267  166.4216 O.2     1  UNL1       -0.2698
     17 H         142.1167  142.6281  165.9001 H       1  UNL1        0.1571
     18 C         140.8380  141.2185  167.9243 C.ar    1  UNL1        0.0591
     19 C         139.9428  140.3169  168.7216 C.ar    1  UNL1        0.0254
     20 C         139.2650  140.8337  169.9559 C.ar    1  UNL1        0.1014
     21 N         139.4825  142.2520  170.3930 N.ar    1  UNL1       -0.2165
     22 C         140.3777  143.1536  169.5957 C.ar    1  UNL1        0.2225
     23 F         140.5953  144.5720  170.0328 F       1  UNL1       -0.1832
     24 C         141.0555  142.6368  168.3614 C.ar    1  UNL1        0.0542
     25 O         142.3493  138.8621  156.4797 O.3     1  UNL1       -0.4535
     26 C         142.5662  134.5423  155.2378 C.ar    1  UNL1        0.1389
     27 C         141.2325  135.2031  155.4238 C.ar    1  UNL1        0.0400
     28 C         141.1602  136.6430  155.8378 C.ar    1  UNL1        0.0406
     29 C         142.4216  137.4221  156.0657 C.ar    1  UNL1        0.1455
     30 C         143.7552  136.7613  155.8797 C.ar    1  UNL1        0.0406
     31 C         143.8275  135.3214  155.4657 C.ar    1  UNL1        0.0400
     32 C         141.5113  132.1695  155.1543 C.3     1  UNL1        0.2525
     33 O         142.6385  133.1023  154.8238 O.3     1  UNL1       -0.4714
@<TRIPOS>BOND
     1    32    33    1
     2    33    26    1
     3    26    27   ar
     4    27    28   ar
     5    28    29   ar
     6    29    25    1
     7    25     1    1
     8     1     2   ar
     9     2     3   ar
    10     3     4    1
    11     3     5   ar
    12     5     9    1
    13     9    10   ar
    14    10    11   ar
    15    11    12   ar
    16    12    14    1
    17    14    15   am
    18    15    16    2
    19    15    18    1
    20    18    19   ar
    21    19    20   ar
    22    20    21   ar
    23    21    22   ar
    24    22    23    1
    25    22    24   ar
    26    12    13   ar
    27     5     6   ar
    28     6     7    1
    29     6     8   ar
    30    29    30   ar
    31    30    31   ar
    32    31    26   ar
    33     8     1   ar
    34    13     9   ar
    35    24    18   ar
    36    14    17    1
