@<TRIPOS>MOLECULE
*****
 33 37 0 0 0
SMALL
GASTEIGER

@<TRIPOS>ATOM
      1 C         140.8133  145.0884  160.9033 C.3     1  UNL1        0.1700
      2 O         141.9136  145.5795  160.0098 O.3     1  UNL1       -0.3793
      3 H         141.8468  145.1442  159.1456 H       1  UNL1        0.2106
      4 C         139.8315  144.0741  160.3958 C.3     1  UNL1        0.2358
      5 O         140.0655  142.6136  160.6450 O.3     1  UNL1       -0.4714
      6 O         143.6882  139.1425  162.6642 O.2     1  UNL1       -0.2707
      7 C         142.2765  139.4991  163.0244 C.2     1  UNL1        0.2708
      8 C         141.6017  138.8176  164.1777 C.3     1  UNL1        0.2897
      9 O         140.1899  139.1742  164.5378 O.3     1  UNL1       -0.4642
     10 C         139.4529  140.2123  163.7447 C.ar    1  UNL1        0.1556
     11 C         138.0411  140.5689  164.1049 C.ar    1  UNL1        0.0384
     12 C         137.3041  141.6070  163.3118 C.ar    1  UNL1        0.0063
     13 C         137.9789  142.2887  162.1585 C.ar    1  UNL1        0.0384
     14 C         139.3907  141.9321  161.7983 C.ar    1  UNL1        0.1550
     15 C         140.1277  140.8939  162.5915 C.ar    1  UNL1        0.1192
     16 N         141.5395  140.5373  162.2313 N.am    1  UNL1       -0.2761
     17 H         141.9824  140.9846  161.4743 H       1  UNL1        0.1551
     18 C         140.6948  145.6114  162.3041 C.3     1  UNL1        0.1056
     19 N         140.7965  144.6699  163.4674 N.3     1  UNL1       -0.2703
     20 C         139.6564  144.5464  164.4342 C.3     1  UNL1        0.0758
     21 C         139.7581  143.6049  165.5974 C.3     1  UNL1        0.0577
     22 C         141.0000  142.7868  165.7939 C.3     1  UNL1        0.1399
     23 C         142.1401  142.9104  164.8271 C.3     1  UNL1        0.0577
     24 C         142.0384  143.8519  163.6638 C.3     1  UNL1        0.0758
     25 C         142.1724  141.9090  166.1178 C.3     1  UNL1        0.0695
     26 C         141.8441  141.1374  167.3616 C.ar    1  UNL1        0.0161
     27 C         142.6198  140.1216  168.1466 C.ar    1  UNL1        0.0102
     28 C         142.0203  139.5067  169.3764 C.ar    1  UNL1        0.0576
     29 CL        142.7960  138.4908  170.1614 Cl      1  UNL1       -0.0823
     30 C         140.6450  139.9076  169.8212 C.ar    1  UNL1        0.0145
     31 C         139.8692  140.9235  169.0362 C.ar    1  UNL1        0.0374
     32 C         140.4688  141.5384  167.8064 C.ar    1  UNL1        0.1343
     33 O         139.9471  142.5578  166.8375 O.3     1  UNL1       -0.4825
@<TRIPOS>BOND
     1     6     7    2
     2     7     8    1
     3     8     9    1
     4     9    10    1
     5    10    11   ar
     6    11    12   ar
     7    12    13   ar
     8    13    14   ar
     9    14     5    1
    10     5     4    1
    11     4     1    1
    12     1     2    1
    13     1    18    1
    14    18    19    1
    15    19    20    1
    16    20    21    1
    17    21    22    1
    18    22    23    1
    19    23    24    1
    20    22    25    1
    21    25    26    1
    22    26    27   ar
    23    27    28   ar
    24    28    29    1
    25    28    30   ar
    26    30    31   ar
    27    31    32   ar
    28    32    33    1
    29    14    15   ar
    30    15    16    1
    31    16     7   am
    32    15    10   ar
    33    24    19    1
    34    32    26   ar
    35    33    22    1
    36     2     3    1
    37    16    17    1
@<TRIPOS>MOLECULE
*****
 33 37 0 0 0
SMALL
GASTEIGER

@<TRIPOS>ATOM
      1 C         142.4887  138.1552  161.1120 C.3     1  UNL1        0.1700
      2 O         142.9812  136.9140  160.4286 O.3     1  UNL1       -0.3793
      3 H         142.2783  136.5547  159.8650 H       1  UNL1        0.2106
      4 C         141.0932  138.6454  160.8622 C.3     1  UNL1        0.2358
      5 O         139.9305  137.9678  161.5247 O.3     1  UNL1       -0.4714
      6 O         138.1892  142.9597  160.3853 O.2     1  UNL1       -0.2707
      7 C         138.2062  142.1230  161.6301 C.2     1  UNL1        0.2708
      8 C         137.6485  142.6713  162.9100 C.3     1  UNL1        0.2897
      9 O         137.6655  141.8345  164.1549 O.3     1  UNL1       -0.4642
     10 C         138.2403  140.4495  164.1197 C.ar    1  UNL1        0.1556
     11 C         138.2573  139.6128  165.3646 C.ar    1  UNL1        0.0384
     12 C         138.8320  138.2277  165.3294 C.ar    1  UNL1        0.0063
     13 C         139.3898  137.6793  164.0495 C.ar    1  UNL1        0.0384
     14 C         139.3728  138.5161  162.8046 C.ar    1  UNL1        0.1550
     15 C         138.7980  139.9012  162.8398 C.ar    1  UNL1        0.1192
     16 N         138.7810  140.7379  161.5950 N.am    1  UNL1       -0.2761
     17 H         139.1470  140.3781  160.7549 H       1  UNL1        0.1551
     18 C         143.3917  138.9062  162.0450 C.3     1  UNL1        0.1056
     19 N         142.8880  139.3386  163.3902 N.3     1  UNL1       -0.2703
     20 C         142.9436  138.3914  164.5518 C.3     1  UNL1        0.0758
     21 C         142.4400  138.8238  165.8969 C.3     1  UNL1        0.0577
     22 C         141.8807  140.2035  166.0803 C.3     1  UNL1        0.1399
     23 C         141.8251  141.1508  164.9186 C.3     1  UNL1        0.0577
     24 C         142.3287  140.7183  163.5736 C.3     1  UNL1        0.0758
     25 C         141.2975  141.5446  166.4140 C.3     1  UNL1        0.0695
     26 C         140.9281  141.5407  167.8679 C.ar    1  UNL1        0.0161
     27 C         140.3145  142.5869  168.7504 C.ar    1  UNL1        0.0102
     28 C         140.0558  142.2896  170.1977 C.ar    1  UNL1        0.0576
     29 CL        139.4421  143.3358  171.0802 Cl      1  UNL1       -0.0823
     30 C         140.4108  140.9462  170.7626 C.ar    1  UNL1        0.0145
     31 C         141.0245  139.8999  169.8800 C.ar    1  UNL1        0.0374
     32 C         141.2832  140.1971  168.4327 C.ar    1  UNL1        0.1343
     33 O         141.8719  139.3707  167.3280 O.3     1  UNL1       -0.4825
@<TRIPOS>BOND
     1     6     7    2
     2     7     8    1
     3     8     9    1
     4     9    10    1
     5    10    11   ar
     6    11    12   ar
     7    12    13   ar
     8    13    14   ar
     9    14     5    1
    10     5     4    1
    11     4     1    1
    12     1     2    1
    13     1    18    1
    14    18    19    1
    15    19    20    1
    16    20    21    1
    17    21    22    1
    18    22    23    1
    19    23    24    1
    20    22    25    1
    21    25    26    1
    22    26    27   ar
    23    27    28   ar
    24    28    29    1
    25    28    30   ar
    26    30    31   ar
    27    31    32   ar
    28    32    33    1
    29    14    15   ar
    30    15    16    1
    31    16     7   am
    32    15    10   ar
    33    24    19    1
    34    32    26   ar
    35    33    22    1
    36     2     3    1
    37    16    17    1
@<TRIPOS>MOLECULE
*****
 33 37 0 0 0
SMALL
GASTEIGER

@<TRIPOS>ATOM
      1 C         137.8157  139.9715  160.5960 C.3     1  UNL1        0.1700
      2 O         136.3761  139.5574  160.5178 O.3     1  UNL1       -0.3793
      3 H         136.3177  138.6560  160.1643 H       1  UNL1        0.2106
      4 C         138.8933  139.0248  160.1570 C.3     1  UNL1        0.2358
      5 O         139.1798  137.7904  160.9595 O.3     1  UNL1       -0.4714
      6 O         144.4211  138.9346  160.2740 O.2     1  UNL1       -0.2707
      7 C         143.5483  138.7379  161.4780 C.2     1  UNL1        0.2708
      8 C         144.1316  138.8570  162.8548 C.3     1  UNL1        0.2897
      9 O         143.2588  138.6604  164.0587 O.3     1  UNL1       -0.4642
     10 C         141.8026  138.3445  163.8859 C.ar    1  UNL1        0.1556
     11 C         140.9298  138.1479  165.0899 C.ar    1  UNL1        0.0384
     12 C         139.4737  137.8320  164.9171 C.ar    1  UNL1        0.0063
     13 C         138.8903  137.7129  163.5402 C.ar    1  UNL1        0.0384
     14 C         139.7631  137.9096  162.3363 C.ar    1  UNL1        0.1550
     15 C         141.2193  138.2254  162.5091 C.ar    1  UNL1        0.1192
     16 N         142.0922  138.4221  161.3052 N.am    1  UNL1       -0.2761
     17 H         141.7093  138.3439  160.4016 H       1  UNL1        0.1551
     18 C         138.1776  141.3321  161.1132 C.3     1  UNL1        0.1056
     19 N         138.8570  141.4727  162.4432 N.3     1  UNL1       -0.2703
     20 C         138.0622  141.3434  163.7087 C.3     1  UNL1        0.0758
     21 C         138.7416  141.4839  165.0386 C.3     1  UNL1        0.0577
     22 C         140.2157  141.7538  165.1030 C.3     1  UNL1        0.1399
     23 C         141.0105  141.8832  163.8375 C.3     1  UNL1        0.0577
     24 C         140.3311  141.7426  162.5076 C.3     1  UNL1        0.0758
     25 C         141.6748  142.0229  165.3237 C.3     1  UNL1        0.0695
     26 C         141.9161  142.0854  166.8029 C.ar    1  UNL1        0.0161
     27 C         143.1594  142.3223  167.6079 C.ar    1  UNL1        0.0102
     28 C         143.0927  142.3288  169.1064 C.ar    1  UNL1        0.0576
     29 CL        144.3360  142.5658  169.9114 Cl      1  UNL1       -0.0823
     30 C         141.7828  142.0983  169.7999 C.ar    1  UNL1        0.0145
     31 C         140.5395  141.8613  168.9949 C.ar    1  UNL1        0.0374
     32 C         140.6061  141.8549  167.4964 C.ar    1  UNL1        0.1343
     33 O         139.5552  141.6500  166.4459 O.3     1  UNL1       -0.4825
@<TRIPOS>BOND
     1     6     7    2
     2     7     8    1
     3     8     9    1
     4     9    10    1
     5    10    11   ar
     6    11    12   ar
     7    12    13   ar
     8    13    14   ar
     9    14     5    1
    10     5     4    1
    11     4     1    1
    12     1     2    1
    13     1    18    1
    14    18    19    1
    15    19    20    1
    16    20    21    1
    17    21    22    1
    18    22    23    1
    19    23    24    1
    20    22    25    1
    21    25    26    1
    22    26    27   ar
    23    27    28   ar
    24    28    29    1
    25    28    30   ar
    26    30    31   ar
    27    31    32   ar
    28    32    33    1
    29    14    15   ar
    30    15    16    1
    31    16     7   am
    32    15    10   ar
    33    24    19    1
    34    32    26   ar
    35    33    22    1
    36     2     3    1
    37    16    17    1
@<TRIPOS>MOLECULE
*****
 33 37 0 0 0
SMALL
GASTEIGER

@<TRIPOS>ATOM
      1 C         141.7751  144.1002  160.0491 C.3     1  UNL1        0.1700
      2 O         141.8849  145.5308  159.6120 O.3     1  UNL1       -0.3793
      3 H         142.7664  145.6883  159.2392 H       1  UNL1        0.2106
      4 C         142.9388  143.1704  159.8720 C.3     1  UNL1        0.2358
      5 O         144.1811  143.3593  160.6911 O.3     1  UNL1       -0.4714
      6 O         144.0505  138.0823  161.8683 O.2     1  UNL1       -0.2707
      7 C         144.0330  139.3332  162.6958 C.2     1  UNL1        0.2708
      8 C         143.9662  139.2422  164.1915 C.3     1  UNL1        0.2897
      9 O         143.9487  140.4932  165.0190 O.3     1  UNL1       -0.4642
     10 C         143.9981  141.8352  164.3508 C.ar    1  UNL1        0.1556
     11 C         143.9806  143.0861  165.1783 C.ar    1  UNL1        0.0384
     12 C         144.0300  144.4281  164.5101 C.ar    1  UNL1        0.0063
     13 C         144.0968  144.5192  163.0143 C.ar    1  UNL1        0.0384
     14 C         144.1143  143.2683  162.1868 C.ar    1  UNL1        0.1550
     15 C         144.0649  141.9262  162.8551 C.ar    1  UNL1        0.1192
     16 N         144.0824  140.6752  162.0276 N.am    1  UNL1       -0.2761
     17 H         144.1262  140.7350  161.0459 H       1  UNL1        0.1551
     18 C         140.5016  143.5993  160.6634 C.3     1  UNL1        0.1056
     19 N         140.4547  143.2649  162.1249 N.3     1  UNL1       -0.2703
     20 C         140.4625  144.3634  163.1463 C.3     1  UNL1        0.0758
     21 C         140.4156  144.0290  164.6077 C.3     1  UNL1        0.0577
     22 C         140.3608  142.5960  165.0479 C.3     1  UNL1        0.1399
     23 C         140.3530  141.4975  164.0265 C.3     1  UNL1        0.0577
     24 C         140.3999  141.8319  162.5651 C.3     1  UNL1        0.0758
     25 C         140.3040  141.2170  165.6354 C.3     1  UNL1        0.0695
     26 C         140.2705  141.3506  167.1292 C.ar    1  UNL1        0.0161
     27 C         140.2118  140.3303  168.2271 C.ar    1  UNL1        0.0102
     28 C         140.1893  140.7715  169.6605 C.ar    1  UNL1        0.0576
     29 CL        140.1305  139.7511  170.7584 Cl      1  UNL1       -0.0823
     30 C         140.2254  142.2329  169.9961 C.ar    1  UNL1        0.0145
     31 C         140.2841  143.2534  168.8982 C.ar    1  UNL1        0.0374
     32 C         140.3067  142.8122  167.4647 C.ar    1  UNL1        0.1343
     33 O         140.3625  143.5819  166.1785 O.3     1  UNL1       -0.4825
@<TRIPOS>BOND
     1     6     7    2
     2     7     8    1
     3     8     9    1
     4     9    10    1
     5    10    11   ar
     6    11    12   ar
     7    12    13   ar
     8    13    14   ar
     9    14     5    1
    10     5     4    1
    11     4     1    1
    12     1     2    1
    13     1    18    1
    14    18    19    1
    15    19    20    1
    16    20    21    1
    17    21    22    1
    18    22    23    1
    19    23    24    1
    20    22    25    1
    21    25    26    1
    22    26    27   ar
    23    27    28   ar
    24    28    29    1
    25    28    30   ar
    26    30    31   ar
    27    31    32   ar
    28    32    33    1
    29    14    15   ar
    30    15    16    1
    31    16     7   am
    32    15    10   ar
    33    24    19    1
    34    32    26   ar
    35    33    22    1
    36     2     3    1
    37    16    17    1
@<TRIPOS>MOLECULE
*****
 33 37 0 0 0
SMALL
GASTEIGER

@<TRIPOS>ATOM
      1 C         138.9028  138.8970  160.1809 C.3     1  UNL1        0.1700
      2 O         139.5385  138.7617  158.8290 O.3     1  UNL1       -0.3793
      3 H         139.1127  139.3740  158.2088 H       1  UNL1        0.2106
      4 C         137.7854  139.8759  160.3897 C.3     1  UNL1        0.2358
      5 O         138.0794  141.3449  160.4642 O.3     1  UNL1       -0.4714
      6 O         141.5534  145.4388  159.8156 O.2     1  UNL1       -0.2707
      7 C         140.7576  144.9244  160.9783 C.2     1  UNL1        0.2708
      8 C         140.8544  145.6031  162.3124 C.3     1  UNL1        0.2897
      9 O         140.0586  145.0887  163.4752 O.3     1  UNL1       -0.4642
     10 C         139.1658  143.8955  163.3038 C.ar    1  UNL1        0.1556
     11 C         138.3700  143.3811  164.4666 C.ar    1  UNL1        0.0384
     12 C         137.4773  142.1880  164.2952 C.ar    1  UNL1        0.0063
     13 C         137.3804  141.5092  162.9610 C.ar    1  UNL1        0.0384
     14 C         138.1762  142.0236  161.7983 C.ar    1  UNL1        0.1550
     15 C         139.0690  143.2168  161.9697 C.ar    1  UNL1        0.1192
     16 N         139.8648  143.7312  160.8070 N.am    1  UNL1       -0.2761
     17 H         139.8013  143.2857  159.9313 H       1  UNL1        0.1551
     18 C         139.3843  138.0535  161.3239 C.3     1  UNL1        0.1056
     19 N         139.6063  138.6731  162.6719 N.3     1  UNL1       -0.2703
     20 C         138.7940  138.2199  163.8486 C.3     1  UNL1        0.0758
     21 C         139.0159  138.8395  165.1964 C.3     1  UNL1        0.0577
     22 C         140.0502  139.9123  165.3676 C.3     1  UNL1        0.1399
     23 C         140.8625  140.3656  164.1909 C.3     1  UNL1        0.0577
     24 C         140.6406  139.7460  162.8430 C.3     1  UNL1        0.0758
     25 C         141.0432  140.9893  165.6902 C.3     1  UNL1        0.0695
     26 C         140.9249  141.3063  167.1516 C.ar    1  UNL1        0.0161
     27 C         141.6501  142.2834  168.0286 C.ar    1  UNL1        0.0102
     28 C         141.3093  142.3795  169.4862 C.ar    1  UNL1        0.0576
     29 CL        142.0346  143.3566  170.3633 Cl      1  UNL1       -0.0823
     30 C         140.2432  141.4984  170.0668 C.ar    1  UNL1        0.0145
     31 C         139.5179  140.5213  169.1898 C.ar    1  UNL1        0.0374
     32 C         139.8587  140.4252  167.7322 C.ar    1  UNL1        0.1343
     33 O         139.3182  139.5637  166.6297 O.3     1  UNL1       -0.4825
@<TRIPOS>BOND
     1     6     7    2
     2     7     8    1
     3     8     9    1
     4     9    10    1
     5    10    11   ar
     6    11    12   ar
     7    12    13   ar
     8    13    14   ar
     9    14     5    1
    10     5     4    1
    11     4     1    1
    12     1     2    1
    13     1    18    1
    14    18    19    1
    15    19    20    1
    16    20    21    1
    17    21    22    1
    18    22    23    1
    19    23    24    1
    20    22    25    1
    21    25    26    1
    22    26    27   ar
    23    27    28   ar
    24    28    29    1
    25    28    30   ar
    26    30    31   ar
    27    31    32   ar
    28    32    33    1
    29    14    15   ar
    30    15    16    1
    31    16     7   am
    32    15    10   ar
    33    24    19    1
    34    32    26   ar
    35    33    22    1
    36     2     3    1
    37    16    17    1
@<TRIPOS>MOLECULE
*****
 33 37 0 0 0
SMALL
GASTEIGER

@<TRIPOS>ATOM
      1 C         138.6311  141.0392  159.6028 C.3     1  UNL1        0.1700
      2 O         139.3045  140.6524  158.3195 O.3     1  UNL1       -0.3793
      3 H         139.5344  141.4522  157.8211 H       1  UNL1        0.2106
      4 C         138.4148  142.4871  159.9295 C.3     1  UNL1        0.2358
      5 O         139.4652  143.2519  160.6790 O.3     1  UNL1       -0.4714
      6 O         144.3029  142.1019  162.8061 O.2     1  UNL1       -0.2707
      7 C         142.9915  142.5454  163.3838 C.2     1  UNL1        0.2708
      8 C         142.8556  142.7533  164.8630 C.3     1  UNL1        0.2897
      9 O         141.5443  143.1967  165.4407 O.3     1  UNL1       -0.4642
     10 C         140.3688  143.4322  164.5392 C.ar    1  UNL1        0.1556
     11 C         139.0575  143.8757  165.1169 C.ar    1  UNL1        0.0384
     12 C         137.8821  144.1111  164.2153 C.ar    1  UNL1        0.0063
     13 C         138.0179  143.9032  162.7360 C.ar    1  UNL1        0.0384
     14 C         139.3293  143.4598  162.1583 C.ar    1  UNL1        0.1550
     15 C         140.5048  143.2243  163.0599 C.ar    1  UNL1        0.1192
     16 N         141.8161  142.7809  162.4822 N.am    1  UNL1       -0.2761
     17 H         141.9053  142.6444  161.5113 H       1  UNL1        0.1551
     18 C         138.1740  139.9780  160.5594 C.3     1  UNL1        0.1056
     19 N         138.6999  139.9575  161.9640 N.3     1  UNL1       -0.2703
     20 C         140.1352  139.6065  162.2224 C.3     1  UNL1        0.0758
     21 C         140.6611  139.5860  163.6270 C.3     1  UNL1        0.0577
     22 C         139.7517  139.9165  164.7733 C.3     1  UNL1        0.1399
     23 C         138.3164  140.2675  164.5149 C.3     1  UNL1        0.0577
     24 C         137.7906  140.2880  163.1103 C.3     1  UNL1        0.0758
     25 C         138.9657  140.2227  166.0136 C.3     1  UNL1        0.0695
     26 C         139.8842  140.0816  167.1912 C.ar    1  UNL1        0.0161
     27 C         139.6628  140.2606  168.6639 C.ar    1  UNL1        0.0102
     28 C         140.7951  140.0461  169.6240 C.ar    1  UNL1        0.0576
     29 CL        140.5737  140.2250  171.0967 Cl      1  UNL1       -0.0823
     30 C         142.1488  139.6527  169.1115 C.ar    1  UNL1        0.0145
     31 C         142.3702  139.4737  167.6387 C.ar    1  UNL1        0.0374
     32 C         141.2379  139.6882  166.6785 C.ar    1  UNL1        0.1343
     33 O         141.1560  139.5861  165.1842 O.3     1  UNL1       -0.4825
@<TRIPOS>BOND
     1     6     7    2
     2     7     8    1
     3     8     9    1
     4     9    10    1
     5    10    11   ar
     6    11    12   ar
     7    12    13   ar
     8    13    14   ar
     9    14     5    1
    10     5     4    1
    11     4     1    1
    12     1     2    1
    13     1    18    1
    14    18    19    1
    15    19    20    1
    16    20    21    1
    17    21    22    1
    18    22    23    1
    19    23    24    1
    20    22    25    1
    21    25    26    1
    22    26    27   ar
    23    27    28   ar
    24    28    29    1
    25    28    30   ar
    26    30    31   ar
    27    31    32   ar
    28    32    33    1
    29    14    15   ar
    30    15    16    1
    31    16     7   am
    32    15    10   ar
    33    24    19    1
    34    32    26   ar
    35    33    22    1
    36     2     3    1
    37    16    17    1
@<TRIPOS>MOLECULE
*****
 33 37 0 0 0
SMALL
GASTEIGER

@<TRIPOS>ATOM
      1 C         143.9183  140.4858  158.8029 C.3     1  UNL1        0.1700
      2 O         144.8288  140.1806  157.6506 O.3     1  UNL1       -0.3793
      3 H         145.2126  141.0056  157.3144 H       1  UNL1        0.2106
      4 C         143.7295  141.9038  159.2544 C.3     1  UNL1        0.2358
      5 O         144.7657  142.5603  160.1177 O.3     1  UNL1       -0.4714
      6 O         140.4316  145.7287  160.7714 O.2     1  UNL1       -0.2707
      7 C         141.3528  145.0180  161.7182 C.2     1  UNL1        0.2708
      8 C         141.1363  145.1266  163.1985 C.3     1  UNL1        0.2897
      9 O         142.0574  144.4159  164.1453 O.3     1  UNL1       -0.4642
     10 C         143.1950  143.5967  163.6118 C.ar    1  UNL1        0.1556
     11 C         144.1162  142.8860  164.5587 C.ar    1  UNL1        0.0384
     12 C         145.2538  142.0668  164.0252 C.ar    1  UNL1        0.0063
     13 C         145.4703  141.9582  162.5448 C.ar    1  UNL1        0.0384
     14 C         144.5492  142.6689  161.5980 C.ar    1  UNL1        0.1550
     15 C         143.4115  143.4881  162.1316 C.ar    1  UNL1        0.1192
     16 N         142.4904  144.1988  161.1847 N.am    1  UNL1       -0.2761
     17 H         142.6325  144.1275  160.2132 H       1  UNL1        0.1551
     18 C         143.1967  139.3732  159.5037 C.3     1  UNL1        0.1056
     19 N         142.9131  139.4717  160.9734 N.3     1  UNL1       -0.2703
     20 C         141.7081  140.2232  161.4560 C.3     1  UNL1        0.0758
     21 C         141.4245  140.3217  162.9256 C.3     1  UNL1        0.0577
     22 C         142.3461  139.6686  163.9127 C.3     1  UNL1        0.1399
     23 C         143.5511  138.9171  163.4301 C.3     1  UNL1        0.0577
     24 C         143.8347  138.8186  161.9604 C.3     1  UNL1        0.0758
     25 C         143.1727  139.0704  165.0121 C.3     1  UNL1        0.0695
     26 C         142.5236  139.4147  166.3200 C.ar    1  UNL1        0.0161
     27 C         142.8919  139.0945  167.7383 C.ar    1  UNL1        0.0102
     28 C         142.0325  139.5852  168.8655 C.ar    1  UNL1        0.0576
     29 CL        142.4008  139.2651  170.2838 Cl      1  UNL1       -0.0823
     30 C         140.8047  140.3962  168.5743 C.ar    1  UNL1        0.0145
     31 C         140.4363  140.7164  167.1558 C.ar    1  UNL1        0.0374
     32 C         141.2958  140.2257  166.0287 C.ar    1  UNL1        0.1343
     33 O         141.1861  140.3826  164.5410 O.3     1  UNL1       -0.4825
@<TRIPOS>BOND
     1     6     7    2
     2     7     8    1
     3     8     9    1
     4     9    10    1
     5    10    11   ar
     6    11    12   ar
     7    12    13   ar
     8    13    14   ar
     9    14     5    1
    10     5     4    1
    11     4     1    1
    12     1     2    1
    13     1    18    1
    14    18    19    1
    15    19    20    1
    16    20    21    1
    17    21    22    1
    18    22    23    1
    19    23    24    1
    20    22    25    1
    21    25    26    1
    22    26    27   ar
    23    27    28   ar
    24    28    29    1
    25    28    30   ar
    26    30    31   ar
    27    31    32   ar
    28    32    33    1
    29    14    15   ar
    30    15    16    1
    31    16     7   am
    32    15    10   ar
    33    24    19    1
    34    32    26   ar
    35    33    22    1
    36     2     3    1
    37    16    17    1
@<TRIPOS>MOLECULE
*****
 33 37 0 0 0
SMALL
GASTEIGER

@<TRIPOS>ATOM
      1 C         138.9136  138.0008  161.9306 C.3     1  UNL1        0.1700
      2 O         140.0874  137.8080  161.0167 O.3     1  UNL1       -0.3793
      3 H         139.9003  138.2203  160.1588 H       1  UNL1        0.2106
      4 C         137.7016  138.7417  161.4487 C.3     1  UNL1        0.2358
      5 O         137.7591  140.2280  161.2548 O.3     1  UNL1       -0.4714
      6 O         143.1078  140.6467  160.5722 O.2     1  UNL1       -0.2707
      7 C         142.1404  141.2038  161.5740 C.2     1  UNL1        0.2708
      8 C         142.6333  142.0862  162.6823 C.3     1  UNL1        0.2897
      9 O         141.6659  142.6434  163.6842 O.3     1  UNL1       -0.4642
     10 C         140.2055  142.3181  163.5778 C.ar    1  UNL1        0.1556
     11 C         139.2381  142.8752  164.5796 C.ar    1  UNL1        0.0384
     12 C         137.7777  142.5499  164.4732 C.ar    1  UNL1        0.0063
     13 C         137.2846  141.6675  163.3649 C.ar    1  UNL1        0.0384
     14 C         138.2521  141.1104  162.3630 C.ar    1  UNL1        0.1550
     15 C         139.7125  141.4357  162.4695 C.ar    1  UNL1        0.1192
     16 N         140.6800  140.8786  161.4676 N.am    1  UNL1       -0.2761
     17 H         140.3564  140.2994  160.7402 H       1  UNL1        0.1551
     18 C         138.9518  137.4526  163.3263 C.3     1  UNL1        0.1056
     19 N         139.4054  138.3220  164.4614 N.3     1  UNL1       -0.2703
     20 C         138.4205  138.7784  165.4965 C.3     1  UNL1        0.0758
     21 C         138.8742  139.6478  166.6316 C.3     1  UNL1        0.0577
     22 C         140.3127  140.0607  166.7315 C.3     1  UNL1        0.1399
     23 C         141.2977  139.6043  165.6963 C.3     1  UNL1        0.0577
     24 C         140.8440  138.7350  164.5613 C.3     1  UNL1        0.0758
     25 C         141.7114  140.5515  166.9618 C.3     1  UNL1        0.0695
     26 C         141.7105  141.3861  168.2082 C.ar    1  UNL1        0.0161
     27 C         142.8029  142.1264  168.9212 C.ar    1  UNL1        0.0102
     28 C         142.4962  142.8919  170.1742 C.ar    1  UNL1        0.0576
     29 CL        143.5886  143.6322  170.8872 Cl      1  UNL1       -0.0823
     30 C         141.0970  142.9170  170.7142 C.ar    1  UNL1        0.0145
     31 C         140.0045  142.1766  170.0012 C.ar    1  UNL1        0.0374
     32 C         140.3112  141.4112  168.7482 C.ar    1  UNL1        0.1343
     33 O         139.4474  140.5921  167.8356 O.3     1  UNL1       -0.4825
@<TRIPOS>BOND
     1     6     7    2
     2     7     8    1
     3     8     9    1
     4     9    10    1
     5    10    11   ar
     6    11    12   ar
     7    12    13   ar
     8    13    14   ar
     9    14     5    1
    10     5     4    1
    11     4     1    1
    12     1     2    1
    13     1    18    1
    14    18    19    1
    15    19    20    1
    16    20    21    1
    17    21    22    1
    18    22    23    1
    19    23    24    1
    20    22    25    1
    21    25    26    1
    22    26    27   ar
    23    27    28   ar
    24    28    29    1
    25    28    30   ar
    26    30    31   ar
    27    31    32   ar
    28    32    33    1
    29    14    15   ar
    30    15    16    1
    31    16     7   am
    32    15    10   ar
    33    24    19    1
    34    32    26   ar
    35    33    22    1
    36     2     3    1
    37    16    17    1
@<TRIPOS>MOLECULE
*****
 33 37 0 0 0
SMALL
GASTEIGER

@<TRIPOS>ATOM
      1 C         142.8186  139.0341  159.9922 C.3     1  UNL1        0.1700
      2 O         142.2169  138.8209  158.6349 O.3     1  UNL1       -0.3793
      3 H         142.7014  139.3475  157.9800 H       1  UNL1        0.2106
      4 C         143.9921  139.9541  160.1563 C.3     1  UNL1        0.2358
      5 O         143.7706  141.4248  160.3511 O.3     1  UNL1       -0.4714
      6 O         139.6769  144.9027  160.9804 O.2     1  UNL1       -0.2707
      7 C         140.8346  144.4922  161.8414 C.2     1  UNL1        0.2708
      8 C         141.0137  145.1043  163.1990 C.3     1  UNL1        0.2897
      9 O         142.1715  144.6938  164.0599 O.3     1  UNL1       -0.4642
     10 C         143.1501  143.6714  163.5632 C.ar    1  UNL1        0.1556
     11 C         144.3078  143.2609  164.4242 C.ar    1  UNL1        0.0384
     12 C         145.2865  142.2385  163.9274 C.ar    1  UNL1        0.0063
     13 C         145.1074  141.6264  162.5697 C.ar    1  UNL1        0.0384
     14 C         143.9497  142.0368  161.7088 C.ar    1  UNL1        0.1550
     15 C         142.9710  143.0593  162.2056 C.ar    1  UNL1        0.1192
     16 N         141.8133  143.4698  161.3446 N.am    1  UNL1       -0.2761
     17 H         141.6957  143.0680  160.4535 H       1  UNL1        0.1551
     18 C         142.2471  138.3274  161.1855 C.3     1  UNL1        0.1056
     19 N         142.1440  139.0404  162.5012 N.3     1  UNL1       -0.2703
     20 C         143.1578  138.7817  163.5759 C.3     1  UNL1        0.0758
     21 C         143.0546  139.4947  164.8916 C.3     1  UNL1        0.0577
     22 C         141.9376  140.4664  165.1325 C.3     1  UNL1        0.1399
     23 C         140.9238  140.7251  164.0577 C.3     1  UNL1        0.0577
     24 C         141.0269  140.0121  162.7421 C.3     1  UNL1        0.0758
     25 C         140.8817  141.4602  165.5163 C.3     1  UNL1        0.0695
     26 C         141.1638  141.9188  166.9164 C.ar    1  UNL1        0.0161
     27 C         140.4593  142.8915  167.8151 C.ar    1  UNL1        0.0102
     28 C         140.9851  143.1538  169.1953 C.ar    1  UNL1        0.0576
     29 CL        140.2807  144.1264  170.0939 Cl      1  UNL1       -0.0823
     30 C         142.2154  142.4434  169.6767 C.ar    1  UNL1        0.0145
     31 C         142.9199  141.4707  168.7780 C.ar    1  UNL1        0.0374
     32 C         142.3941  141.2084  167.3979 C.ar    1  UNL1        0.1343
     33 O         142.8723  140.3108  166.2954 O.3     1  UNL1       -0.4825
@<TRIPOS>BOND
     1     6     7    2
     2     7     8    1
     3     8     9    1
     4     9    10    1
     5    10    11   ar
     6    11    12   ar
     7    12    13   ar
     8    13    14   ar
     9    14     5    1
    10     5     4    1
    11     4     1    1
    12     1     2    1
    13     1    18    1
    14    18    19    1
    15    19    20    1
    16    20    21    1
    17    21    22    1
    18    22    23    1
    19    23    24    1
    20    22    25    1
    21    25    26    1
    22    26    27   ar
    23    27    28   ar
    24    28    29    1
    25    28    30   ar
    26    30    31   ar
    27    31    32   ar
    28    32    33    1
    29    14    15   ar
    30    15    16    1
    31    16     7   am
    32    15    10   ar
    33    24    19    1
    34    32    26   ar
    35    33    22    1
    36     2     3    1
    37    16    17    1
