@<TRIPOS>MOLECULE
*****
 36 39 0 0 0
SMALL
GASTEIGER

@<TRIPOS>ATOM
      1 C         140.7558  138.5283  160.8755 C.ar    1  UNL1        0.2204
      2 N         139.6685  138.6252  159.8467 N.ar    1  UNL1       -0.2089
      3 C         139.9847  138.4001  158.3978 C.ar    1  UNL1        0.1402
      4 C         141.3882  138.0780  157.9776 C.ar    1  UNL1        0.1773
      5 C         142.4755  137.9811  159.0064 C.ar    1  UNL1        0.1402
      6 N         142.1593  138.2063  160.4554 N.ar    1  UNL1       -0.2089
      7 C         141.0907  141.2565  162.0776 C.3     1  UNL1        0.0233
      8 C         140.6070  140.1175  162.9254 C.3     1  UNL1        0.0955
      9 C         140.2908  140.3426  164.3743 C.3     1  UNL1        0.1149
     10 N         139.8071  139.2037  165.2222 N.pl3   1  UNL1       -0.2590
     11 C         139.6397  137.8396  164.6211 C.3     1  UNL1        0.1166
     12 C         139.9559  137.6145  163.1723 C.3     1  UNL1        0.1151
     13 N         140.4396  138.7535  162.3244 N.pl3   1  UNL1       -0.2764
     14 C         139.4909  139.4288  166.6711 C.ar    1  UNL1        0.3120
     15 N         138.2341  139.0100  167.3747 N.ar    1  UNL1       -0.0922
     16 N         138.3424  139.4347  168.8092 N.ar    1  UNL1       -0.1018
     17 C         139.6662  140.1160  168.9923 C.ar    1  UNL1        0.3233
     18 O         140.3760  140.1123  167.6708 O.2     1  UNL1       -0.4012
     19 C         140.1885  140.6986  170.2720 C.3     1  UNL1        0.4711
     20 F         140.7108  141.2812  171.5518 F       1  UNL1       -0.1619
     21 F         141.1304  139.5400  170.4151 F       1  UNL1       -0.1619
     22 F         139.2467  141.8572  170.1289 F       1  UNL1       -0.1619
     23 O         141.7044  137.8529  156.5287 O.3     1  UNL1       -0.4674
     24 C         142.8608  136.9801  156.1403 C.3     1  UNL1        0.2344
     25 C         142.7137  135.4875  156.1598 C.ar    1  UNL1        0.0488
     26 C         143.6206  134.6556  157.0175 C.ar    1  UNL1        0.0048
     27 C         143.4734  133.1630  157.0371 C.ar    1  UNL1        0.0398
     28 C         142.4195  132.5022  156.1989 C.ar    1  UNL1        0.1754
     29 C         141.5126  133.3340  155.3412 C.ar    1  UNL1        0.0692
     30 C         141.6598  134.8267  155.3216 C.ar    1  UNL1        0.1427
     31 F         140.7529  135.6585  154.4639 F       1  UNL1       -0.2043
     32 O         142.2724  131.0096  156.2185 O.3     1  UNL1       -0.3442
     33 S         143.4788  130.1347  156.0476 S.O2    1  UNL1        0.1337
     34 C         144.6852  129.2599  155.8768 C.3     1  UNL1        0.2230
     35 O         143.3353  129.6604  157.4634 O.2     1  UNL1       -0.1360
     36 O         143.6222  130.6090  154.6318 O.2     1  UNL1       -0.1360
@<TRIPOS>BOND
     1     8     7    1
     2     8     9    1
     3     9    10    1
     4    10    14    1
     5    14    15   ar
     6    15    16   ar
     7    16    17   ar
     8    17    19    1
     9    19    20    1
    10    19    21    1
    11    19    22    1
    12    17    18   ar
    13    10    11    1
    14    11    12    1
    15    12    13    1
    16    13     1    1
    17     1     2   ar
    18     2     3   ar
    19     3     4   ar
    20     4    23    1
    21    23    24    1
    22    24    25    1
    23    25    26   ar
    24    26    27   ar
    25    27    28   ar
    26    28    32    1
    27    32    33    1
    28    33    34    1
    29    33    35    2
    30    33    36    2
    31    28    29   ar
    32    29    30   ar
    33    30    31    1
    34     4     5   ar
    35     5     6   ar
    36    13     8    1
    37     6     1   ar
    38    18    14   ar
    39    30    25   ar
@<TRIPOS>MOLECULE
*****
 36 39 0 0 0
SMALL
GASTEIGER

@<TRIPOS>ATOM
      1 C         139.6208  140.4686  159.8753 C.ar    1  UNL1        0.2204
      2 N         139.7603  141.9103  159.4852 N.ar    1  UNL1       -0.2089
      3 C         139.0129  142.9678  160.2422 C.ar    1  UNL1        0.1402
      4 C         138.1260  142.5837  161.3893 C.ar    1  UNL1        0.1773
      5 C         137.9864  141.1420  161.7794 C.ar    1  UNL1        0.1402
      6 N         138.7339  140.0845  161.0224 N.ar    1  UNL1       -0.2089
      7 C         142.4034  139.7140  160.7045 C.3     1  UNL1        0.0233
      8 C         141.7595  139.0338  159.5329 C.3     1  UNL1        0.0955
      9 C         142.5068  137.9763  158.7758 C.3     1  UNL1        0.1149
     10 N         141.8629  137.2961  157.6042 N.pl3   1  UNL1       -0.2590
     11 C         140.4716  137.6734  157.1897 C.3     1  UNL1        0.1166
     12 C         139.7242  138.7309  157.9467 C.3     1  UNL1        0.1151
     13 N         140.3682  139.4111  159.1183 N.pl3   1  UNL1       -0.2764
     14 C         142.6103  136.2385  156.8472 C.ar    1  UNL1        0.3120
     15 N         142.9946  136.2966  155.3984 N.ar    1  UNL1       -0.0922
     16 N         143.7264  135.0312  155.0619 N.ar    1  UNL1       -0.1018
     17 C         143.7945  134.1911  156.3028 C.ar    1  UNL1        0.3233
     18 O         143.1047  134.9373  157.4061 O.2     1  UNL1       -0.4012
     19 C         144.4391  132.8418  156.4197 C.3     1  UNL1        0.4711
     20 F         145.0838  131.4924  156.5366 F       1  UNL1       -0.1619
     21 F         143.9621  132.4943  155.0407 F       1  UNL1       -0.1619
     22 F         144.9162  133.1892  157.7987 F       1  UNL1       -0.1619
     23 O         137.3786  143.6412  162.1463 O.3     1  UNL1       -0.4674
     24 C         137.9531  144.2051  163.4120 C.3     1  UNL1        0.2344
     25 C         139.4345  144.1689  163.6445 C.ar    1  UNL1        0.0488
     26 C         140.0338  143.0901  164.4972 C.ar    1  UNL1        0.0048
     27 C         141.5152  143.0540  164.7297 C.ar    1  UNL1        0.0398
     28 C         142.3974  144.0966  164.1095 C.ar    1  UNL1        0.1754
     29 C         141.7981  145.1754  163.2569 C.ar    1  UNL1        0.0692
     30 C         140.3167  145.2116  163.0243 C.ar    1  UNL1        0.1427
     31 F         139.7175  146.2904  162.1717 F       1  UNL1       -0.2043
     32 O         143.8788  144.0605  164.3421 O.3     1  UNL1       -0.3442
     33 S         144.7057  142.9627  163.7412 S.O2    1  UNL1        0.1337
     34 C         145.5327  141.8649  163.1403 C.3     1  UNL1        0.2230
     35 O         144.6988  143.6788  162.4232 O.2     1  UNL1       -0.1360
     36 O         144.7127  142.2465  165.0592 O.2     1  UNL1       -0.1360
@<TRIPOS>BOND
     1     8     7    1
     2     8     9    1
     3     9    10    1
     4    10    14    1
     5    14    15   ar
     6    15    16   ar
     7    16    17   ar
     8    17    19    1
     9    19    20    1
    10    19    21    1
    11    19    22    1
    12    17    18   ar
    13    10    11    1
    14    11    12    1
    15    12    13    1
    16    13     1    1
    17     1     2   ar
    18     2     3   ar
    19     3     4   ar
    20     4    23    1
    21    23    24    1
    22    24    25    1
    23    25    26   ar
    24    26    27   ar
    25    27    28   ar
    26    28    32    1
    27    32    33    1
    28    33    34    1
    29    33    35    2
    30    33    36    2
    31    28    29   ar
    32    29    30   ar
    33    30    31    1
    34     4     5   ar
    35     5     6   ar
    36    13     8    1
    37     6     1   ar
    38    18    14   ar
    39    30    25   ar
@<TRIPOS>MOLECULE
*****
 36 39 0 0 0
SMALL
GASTEIGER

@<TRIPOS>ATOM
      1 C         142.1057  138.7237  161.4531 C.ar    1  UNL1        0.2204
      2 N         143.0878  137.8075  160.7854 N.ar    1  UNL1       -0.2089
      3 C         142.9055  137.4345  159.3440 C.ar    1  UNL1        0.1402
      4 C         141.7409  137.9778  158.5702 C.ar    1  UNL1        0.1773
      5 C         140.7587  138.8940  159.2379 C.ar    1  UNL1        0.1402
      6 N         140.9411  139.2670  160.6794 N.ar    1  UNL1       -0.2089
      7 C         140.3744  137.4694  163.5577 C.3     1  UNL1        0.0233
      8 C         141.4225  138.4696  163.9468 C.3     1  UNL1        0.0955
      9 C         141.6049  138.8426  165.3882 C.3     1  UNL1        0.1149
     10 N         142.6529  139.8427  165.7772 N.pl3   1  UNL1       -0.2590
     11 C         143.5185  140.4699  164.7249 C.3     1  UNL1        0.1166
     12 C         143.3361  140.0969  163.2836 C.3     1  UNL1        0.1151
     13 N         142.2881  139.0967  162.8945 N.pl3   1  UNL1       -0.2764
     14 C         142.8353  140.2157  167.2187 C.ar    1  UNL1        0.3120
     15 N         142.9559  139.2598  168.3683 N.ar    1  UNL1       -0.0922
     16 N         143.1243  140.0634  169.6236 N.ar    1  UNL1       -0.1018
     17 C         143.1077  141.5160  169.2498 C.ar    1  UNL1        0.3233
     18 O         142.9291  141.6101  167.7635 O.2     1  UNL1       -0.4012
     19 C         143.2455  142.6716  170.1962 C.3     1  UNL1        0.4711
     20 F         143.3833  143.8271  171.1426 F       1  UNL1       -0.1619
     21 F         144.7214  142.7125  169.9313 F       1  UNL1       -0.1619
     22 F         141.7697  142.6306  170.4612 F       1  UNL1       -0.1619
     23 O         141.5586  137.6048  157.1289 O.3     1  UNL1       -0.4674
     24 C         142.6312  136.8413  156.4102 C.3     1  UNL1        0.2344
     25 C         142.5309  135.3505  156.2788 C.ar    1  UNL1        0.0488
     26 C         143.4410  134.4643  157.0766 C.ar    1  UNL1        0.0048
     27 C         143.3407  132.9734  156.9452 C.ar    1  UNL1        0.0398
     28 C         142.3302  132.3687  156.0161 C.ar    1  UNL1        0.1754
     29 C         141.4202  133.2549  155.2183 C.ar    1  UNL1        0.0692
     30 C         141.5205  134.7457  155.3496 C.ar    1  UNL1        0.1427
     31 F         140.6104  135.6319  154.5519 F       1  UNL1       -0.2043
     32 O         142.2299  130.8779  155.8847 O.3     1  UNL1       -0.3442
     33 S         143.4724  130.0545  155.7165 S.O2    1  UNL1        0.1337
     34 C         144.7149  129.2311  155.5482 C.3     1  UNL1        0.2230
     35 O         143.6874  130.6562  154.3593 O.2     1  UNL1       -0.1360
     36 O         143.2574  129.4528  157.0736 O.2     1  UNL1       -0.1360
@<TRIPOS>BOND
     1     8     7    1
     2     8     9    1
     3     9    10    1
     4    10    14    1
     5    14    15   ar
     6    15    16   ar
     7    16    17   ar
     8    17    19    1
     9    19    20    1
    10    19    21    1
    11    19    22    1
    12    17    18   ar
    13    10    11    1
    14    11    12    1
    15    12    13    1
    16    13     1    1
    17     1     2   ar
    18     2     3   ar
    19     3     4   ar
    20     4    23    1
    21    23    24    1
    22    24    25    1
    23    25    26   ar
    24    26    27   ar
    25    27    28   ar
    26    28    32    1
    27    32    33    1
    28    33    34    1
    29    33    35    2
    30    33    36    2
    31    28    29   ar
    32    29    30   ar
    33    30    31    1
    34     4     5   ar
    35     5     6   ar
    36    13     8    1
    37     6     1   ar
    38    18    14   ar
    39    30    25   ar
@<TRIPOS>MOLECULE
*****
 36 39 0 0 0
SMALL
GASTEIGER

@<TRIPOS>ATOM
      1 C         141.6054  143.5664  159.7085 C.ar    1  UNL1        0.2204
      2 N         140.5192  142.5678  159.9789 N.ar    1  UNL1       -0.2089
      3 C         139.3934  142.9170  160.9065 C.ar    1  UNL1        0.1402
      4 C         139.3537  144.2648  161.5638 C.ar    1  UNL1        0.1773
      5 C         140.4398  145.2633  161.2934 C.ar    1  UNL1        0.1402
      6 N         141.5657  144.9141  160.3657 N.ar    1  UNL1       -0.2089
      7 C         144.2067  142.5645  160.8172 C.3     1  UNL1        0.0233
      8 C         144.0319  142.7162  159.3352 C.3     1  UNL1        0.0955
      9 C         145.1577  142.3670  158.4075 C.3     1  UNL1        0.1149
     10 N         144.9829  142.5188  156.9255 N.pl3   1  UNL1       -0.2590
     11 C         143.6822  143.0197  156.3711 C.3     1  UNL1        0.1166
     12 C         142.5564  143.3689  157.2988 C.3     1  UNL1        0.1151
     13 N         142.7313  143.2172  158.7808 N.pl3   1  UNL1       -0.2764
     14 C         146.1088  142.1696  155.9978 C.ar    1  UNL1        0.3120
     15 N         145.9687  141.6499  154.5977 N.ar    1  UNL1       -0.0922
     16 N         147.3457  141.4379  154.0420 N.ar    1  UNL1       -0.1018
     17 C         148.3369  141.8266  155.0987 C.ar    1  UNL1        0.3233
     18 O         147.5724  142.2788  156.3074 O.2     1  UNL1       -0.4012
     19 C         149.8303  141.7725  154.9693 C.3     1  UNL1        0.4711
     20 F         151.3237  141.7185  154.8400 F       1  UNL1       -0.1619
     21 F         149.6923  141.4507  153.5108 F       1  UNL1       -0.1619
     22 F         149.9683  142.0943  156.4279 F       1  UNL1       -0.1619
     23 O         138.2278  144.6139  162.4914 O.3     1  UNL1       -0.4674
     24 C         138.4688  144.6843  163.9702 C.3     1  UNL1        0.2344
     25 C         138.8791  143.4532  164.7227 C.ar    1  UNL1        0.0488
     26 C         139.9945  143.5226  165.7232 C.ar    1  UNL1        0.0048
     27 C         140.4047  142.2914  166.4756 C.ar    1  UNL1        0.0398
     28 C         139.6995  140.9910  166.2275 C.ar    1  UNL1        0.1754
     29 C         138.5840  140.9217  165.2270 C.ar    1  UNL1        0.0692
     30 C         138.1738  142.1527  164.4746 C.ar    1  UNL1        0.1427
     31 F         137.0584  142.0834  163.4741 F       1  UNL1       -0.2043
     32 O         140.1097  139.7600  166.9800 O.3     1  UNL1       -0.3442
     33 S         140.4815  139.8563  168.4300 S.O2    1  UNL1        0.1337
     34 C         140.8533  139.9525  169.8800 C.3     1  UNL1        0.2230
     35 O         139.0286  139.8514  168.8028 O.2     1  UNL1       -0.1360
     36 O         141.9344  139.8611  168.0571 O.2     1  UNL1       -0.1360
@<TRIPOS>BOND
     1     8     7    1
     2     8     9    1
     3     9    10    1
     4    10    14    1
     5    14    15   ar
     6    15    16   ar
     7    16    17   ar
     8    17    19    1
     9    19    20    1
    10    19    21    1
    11    19    22    1
    12    17    18   ar
    13    10    11    1
    14    11    12    1
    15    12    13    1
    16    13     1    1
    17     1     2   ar
    18     2     3   ar
    19     3     4   ar
    20     4    23    1
    21    23    24    1
    22    24    25    1
    23    25    26   ar
    24    26    27   ar
    25    27    28   ar
    26    28    32    1
    27    32    33    1
    28    33    34    1
    29    33    35    2
    30    33    36    2
    31    28    29   ar
    32    29    30   ar
    33    30    31    1
    34     4     5   ar
    35     5     6   ar
    36    13     8    1
    37     6     1   ar
    38    18    14   ar
    39    30    25   ar
@<TRIPOS>MOLECULE
*****
 36 39 0 0 0
SMALL
GASTEIGER

@<TRIPOS>ATOM
      1 C         143.3265  141.1293  160.1676 C.ar    1  UNL1        0.2204
      2 N         144.5739  141.3573  160.9690 N.ar    1  UNL1       -0.2089
      3 C         144.7264  142.6105  161.7790 C.ar    1  UNL1        0.1402
      4 C         143.6314  143.6358  161.7877 C.ar    1  UNL1        0.1773
      5 C         142.3841  143.4078  160.9863 C.ar    1  UNL1        0.1402
      6 N         142.2317  142.1545  160.1763 N.ar    1  UNL1       -0.2089
      7 C         142.8567  138.5036  161.5406 C.3     1  UNL1        0.0233
      8 C         142.9392  138.5632  160.0441 C.3     1  UNL1        0.0955
      9 C         142.7868  137.3100  159.2340 C.3     1  UNL1        0.1149
     10 N         142.8693  137.3696  157.7375 N.pl3   1  UNL1       -0.2590
     11 C         143.1042  138.6824  157.0510 C.3     1  UNL1        0.1166
     12 C         143.2566  139.9356  157.8610 C.3     1  UNL1        0.1151
     13 N         143.1741  139.8760  159.3576 N.pl3   1  UNL1       -0.2764
     14 C         142.7168  136.1163  156.9274 C.ar    1  UNL1        0.3120
     15 N         141.5425  135.7618  156.0642 N.ar    1  UNL1       -0.0922
     16 N         141.8119  134.4239  155.4417 N.ar    1  UNL1       -0.1018
     17 C         143.1528  133.9516  155.9202 C.ar    1  UNL1        0.3233
     18 O         143.7121  134.9976  156.8384 O.2     1  UNL1       -0.4012
     19 C         143.8176  132.6601  155.5462 C.3     1  UNL1        0.4711
     20 F         144.4825  131.3686  155.1721 F       1  UNL1       -0.1619
     21 F         144.4323  132.5809  156.9121 F       1  UNL1       -0.1619
     22 F         143.2029  132.7393  154.1802 F       1  UNL1       -0.1619
     23 O         143.7839  144.8890  162.5977 O.3     1  UNL1       -0.4674
     24 C         143.0154  145.0545  163.8752 C.3     1  UNL1        0.2344
     25 C         142.6633  143.8520  164.6998 C.ar    1  UNL1        0.0488
     26 C         141.2470  143.3598  164.7415 C.ar    1  UNL1        0.0048
     27 C         140.8949  142.1572  165.5662 C.ar    1  UNL1        0.0398
     28 C         141.9592  141.4469  166.3490 C.ar    1  UNL1        0.1754
     29 C         143.3755  141.9391  166.3072 C.ar    1  UNL1        0.0692
     30 C         143.7276  143.1416  165.4827 C.ar    1  UNL1        0.1427
     31 F         145.1439  143.6338  165.4409 F       1  UNL1       -0.2043
     32 O         141.6071  140.2444  167.1735 O.3     1  UNL1       -0.3442
     33 S         142.1104  140.1270  168.5817 S.O2    1  UNL1        0.1337
     34 C         142.6138  140.0097  169.9898 C.3     1  UNL1        0.2230
     35 O         141.2095  141.2520  168.9975 O.2     1  UNL1       -0.1360
     36 O         143.0113  139.0021  168.1659 O.2     1  UNL1       -0.1360
@<TRIPOS>BOND
     1     8     7    1
     2     8     9    1
     3     9    10    1
     4    10    14    1
     5    14    15   ar
     6    15    16   ar
     7    16    17   ar
     8    17    19    1
     9    19    20    1
    10    19    21    1
    11    19    22    1
    12    17    18   ar
    13    10    11    1
    14    11    12    1
    15    12    13    1
    16    13     1    1
    17     1     2   ar
    18     2     3   ar
    19     3     4   ar
    20     4    23    1
    21    23    24    1
    22    24    25    1
    23    25    26   ar
    24    26    27   ar
    25    27    28   ar
    26    28    32    1
    27    32    33    1
    28    33    34    1
    29    33    35    2
    30    33    36    2
    31    28    29   ar
    32    29    30   ar
    33    30    31    1
    34     4     5   ar
    35     5     6   ar
    36    13     8    1
    37     6     1   ar
    38    18    14   ar
    39    30    25   ar
@<TRIPOS>MOLECULE
*****
 36 39 0 0 0
SMALL
GASTEIGER

@<TRIPOS>ATOM
      1 C         141.4119  143.7155  159.9830 C.ar    1  UNL1        0.2204
      2 N         140.2259  142.8108  160.1407 N.ar    1  UNL1       -0.2089
      3 C         139.1190  143.1824  161.0823 C.ar    1  UNL1        0.1402
      4 C         139.1980  144.4589  161.8661 C.ar    1  UNL1        0.1773
      5 C         140.3840  145.3637  161.7084 C.ar    1  UNL1        0.1402
      6 N         141.4909  144.9920  160.7668 N.ar    1  UNL1       -0.2089
      7 C         144.0407  142.7547  161.0629 C.3     1  UNL1        0.0233
      8 C         143.8332  142.8634  159.5813 C.3     1  UNL1        0.0955
      9 C         144.9400  142.4917  158.6397 C.3     1  UNL1        0.1149
     10 N         144.7325  142.6004  157.1581 N.pl3   1  UNL1       -0.2590
     11 C         143.4182  143.0808  156.6181 C.3     1  UNL1        0.1166
     12 C         142.3113  143.4525  157.5597 C.3     1  UNL1        0.1151
     13 N         142.5188  143.3438  159.0413 N.pl3   1  UNL1       -0.2764
     14 C         145.8395  142.2287  156.2165 C.ar    1  UNL1        0.3120
     15 N         145.6723  141.7433  154.8071 N.ar    1  UNL1       -0.0922
     16 N         147.0374  141.4917  154.2386 N.ar    1  UNL1       -0.1018
     17 C         148.0483  141.8216  155.2966 C.ar    1  UNL1        0.3233
     18 O         147.3079  142.2771  156.5190 O.2     1  UNL1       -0.4012
     19 C         149.5379  141.7149  155.1568 C.3     1  UNL1        0.4711
     20 F         151.0275  141.6081  155.0169 F       1  UNL1       -0.1619
     21 F         149.7032  142.1550  156.5812 F       1  UNL1       -0.1619
     22 F         149.3726  141.2747  153.7324 F       1  UNL1       -0.1619
     23 O         138.0911  144.8306  162.8077 O.3     1  UNL1       -0.4674
     24 C         138.2154  144.5221  164.2704 C.3     1  UNL1        0.2344
     25 C         138.6991  143.1734  164.7140 C.ar    1  UNL1        0.0488
     26 C         139.8737  143.0653  165.6405 C.ar    1  UNL1        0.0048
     27 C         140.3574  141.7164  166.0841 C.ar    1  UNL1        0.0398
     28 C         139.6664  140.4757  165.6012 C.ar    1  UNL1        0.1754
     29 C         138.4918  140.5839  164.6747 C.ar    1  UNL1        0.0692
     30 C         138.0081  141.9326  164.2310 C.ar    1  UNL1        0.1427
     31 F         136.8334  142.0407  163.3045 F       1  UNL1       -0.2043
     32 O         140.1501  139.1270  166.0448 O.3     1  UNL1       -0.3442
     33 S         140.5994  138.1197  165.0282 S.O2    1  UNL1        0.1337
     34 C         141.0487  137.1123  164.0116 C.3     1  UNL1        0.2230
     35 O         141.9003  138.8513  164.8782 O.2     1  UNL1       -0.1360
     36 O         139.2985  137.3880  165.1783 O.2     1  UNL1       -0.1360
@<TRIPOS>BOND
     1     8     7    1
     2     8     9    1
     3     9    10    1
     4    10    14    1
     5    14    15   ar
     6    15    16   ar
     7    16    17   ar
     8    17    19    1
     9    19    20    1
    10    19    21    1
    11    19    22    1
    12    17    18   ar
    13    10    11    1
    14    11    12    1
    15    12    13    1
    16    13     1    1
    17     1     2   ar
    18     2     3   ar
    19     3     4   ar
    20     4    23    1
    21    23    24    1
    22    24    25    1
    23    25    26   ar
    24    26    27   ar
    25    27    28   ar
    26    28    32    1
    27    32    33    1
    28    33    34    1
    29    33    35    2
    30    33    36    2
    31    28    29   ar
    32    29    30   ar
    33    30    31    1
    34     4     5   ar
    35     5     6   ar
    36    13     8    1
    37     6     1   ar
    38    18    14   ar
    39    30    25   ar
@<TRIPOS>MOLECULE
*****
 36 39 0 0 0
SMALL
GASTEIGER

@<TRIPOS>ATOM
      1 C         141.0705  141.4922  159.1353 C.ar    1  UNL1        0.2204
      2 N         139.6441  141.6534  159.5703 N.ar    1  UNL1       -0.2089
      3 C         139.1544  142.9850  160.0571 C.ar    1  UNL1        0.1402
      4 C         140.0911  144.1554  160.1089 C.ar    1  UNL1        0.1773
      5 C         141.5176  143.9942  159.6738 C.ar    1  UNL1        0.1402
      6 N         142.0073  142.6625  159.1870 N.ar    1  UNL1       -0.2089
      7 C         142.1913  139.5031  161.0815 C.3     1  UNL1        0.0233
      8 C         142.1206  139.1660  159.6215 C.3     1  UNL1        0.0955
      9 C         142.6102  137.8344  159.1347 C.3     1  UNL1        0.1149
     10 N         142.5395  137.4973  157.6748 N.pl3   1  UNL1       -0.2590
     11 C         141.9791  138.4918  156.7017 C.3     1  UNL1        0.1166
     12 C         141.4895  139.8234  157.1885 C.3     1  UNL1        0.1151
     13 N         141.5602  140.1605  158.6485 N.pl3   1  UNL1       -0.2764
     14 C         143.0292  136.1656  157.1880 C.ar    1  UNL1        0.3120
     15 N         143.3144  135.7987  155.7618 N.ar    1  UNL1       -0.0922
     16 N         143.7811  134.3734  155.7343 N.ar    1  UNL1       -0.1018
     17 C         143.7843  133.8594  157.1436 C.ar    1  UNL1        0.3233
     18 O         143.3196  134.9671  158.0419 O.2     1  UNL1       -0.4012
     19 C         144.1824  132.4801  157.5781 C.3     1  UNL1        0.4711
     20 F         144.5804  131.1007  158.0126 F       1  UNL1       -0.1619
     21 F         145.3357  133.0547  158.3460 F       1  UNL1       -0.1619
     22 F         143.0291  131.9054  156.8102 F       1  UNL1       -0.1619
     23 O         139.6014  145.4870  160.5957 O.3     1  UNL1       -0.4674
     24 C         139.9334  145.9462  161.9845 C.3     1  UNL1        0.2344
     25 C         139.9493  144.9619  163.1162 C.ar    1  UNL1        0.0488
     26 C         141.2447  144.6092  163.7853 C.ar    1  UNL1        0.0048
     27 C         141.2605  143.6248  164.9171 C.ar    1  UNL1        0.0398
     28 C         139.9811  142.9931  165.3796 C.ar    1  UNL1        0.1754
     29 C         138.6858  143.3458  164.7105 C.ar    1  UNL1        0.0692
     30 C         138.6699  144.3302  163.5788 C.ar    1  UNL1        0.1427
     31 F         137.3745  144.6828  162.9097 F       1  UNL1       -0.2043
     32 O         139.9970  142.0088  166.5113 O.3     1  UNL1       -0.3442
     33 S         141.0499  142.1062  167.5753 S.O2    1  UNL1        0.1337
     34 C         142.1027  142.2035  168.6393 C.3     1  UNL1        0.2230
     35 O         141.7939  140.9673  166.9433 O.2     1  UNL1       -0.1360
     36 O         140.3059  143.2450  168.2073 O.2     1  UNL1       -0.1360
@<TRIPOS>BOND
     1     8     7    1
     2     8     9    1
     3     9    10    1
     4    10    14    1
     5    14    15   ar
     6    15    16   ar
     7    16    17   ar
     8    17    19    1
     9    19    20    1
    10    19    21    1
    11    19    22    1
    12    17    18   ar
    13    10    11    1
    14    11    12    1
    15    12    13    1
    16    13     1    1
    17     1     2   ar
    18     2     3   ar
    19     3     4   ar
    20     4    23    1
    21    23    24    1
    22    24    25    1
    23    25    26   ar
    24    26    27   ar
    25    27    28   ar
    26    28    32    1
    27    32    33    1
    28    33    34    1
    29    33    35    2
    30    33    36    2
    31    28    29   ar
    32    29    30   ar
    33    30    31    1
    34     4     5   ar
    35     5     6   ar
    36    13     8    1
    37     6     1   ar
    38    18    14   ar
    39    30    25   ar
@<TRIPOS>MOLECULE
*****
 36 39 0 0 0
SMALL
GASTEIGER

@<TRIPOS>ATOM
      1 C         141.1388  141.9042  160.7155 C.ar    1  UNL1        0.2204
      2 N         142.3552  141.0523  160.5043 N.ar    1  UNL1       -0.2089
      3 C         142.6948  139.9726  161.4887 C.ar    1  UNL1        0.1402
      4 C         141.8180  139.7449  162.6843 C.ar    1  UNL1        0.1773
      5 C         140.6015  140.5968  162.8954 C.ar    1  UNL1        0.1402
      6 N         140.2619  141.6764  161.9110 N.ar    1  UNL1       -0.2089
      7 C         139.3837  141.2898  158.3613 C.3     1  UNL1        0.0233
      8 C         139.9217  142.6766  158.5540 C.3     1  UNL1        0.0955
      9 C         139.5822  143.7563  157.5696 C.3     1  UNL1        0.1149
     10 N         140.1201  145.1432  157.7623 N.pl3   1  UNL1       -0.2590
     11 C         140.9976  145.4504  158.9394 C.3     1  UNL1        0.1166
     12 C         141.3372  144.3708  159.9238 C.3     1  UNL1        0.1151
     13 N         140.7992  142.9839  159.7311 N.pl3   1  UNL1       -0.2764
     14 C         139.7805  146.2229  156.7779 C.ar    1  UNL1        0.3120
     15 N         139.9300  146.1363  155.2879 N.ar    1  UNL1       -0.0922
     16 N         139.4737  147.4386  154.6998 N.ar    1  UNL1       -0.1018
     17 C         139.0423  148.3301  155.8264 C.ar    1  UNL1        0.3233
     18 O         139.2319  147.5787  157.1107 O.2     1  UNL1       -0.4012
     19 C         138.5140  149.7275  155.6922 C.3     1  UNL1        0.4711
     20 F         137.9857  151.1250  155.5580 F       1  UNL1       -0.1619
     21 F         139.0593  149.7997  154.2967 F       1  UNL1       -0.1619
     22 F         137.9686  149.6554  157.0877 F       1  UNL1       -0.1619
     23 O         142.1576  138.6652  163.6686 O.3     1  UNL1       -0.4674
     24 C         143.2428  138.8868  164.6802 C.3     1  UNL1        0.2344
     25 C         143.0401  139.8706  165.7942 C.ar    1  UNL1        0.0488
     26 C         142.4781  139.4118  167.1070 C.ar    1  UNL1        0.0048
     27 C         142.2755  140.3957  168.2211 C.ar    1  UNL1        0.0398
     28 C         142.6349  141.8383  168.0222 C.ar    1  UNL1        0.1754
     29 C         143.1969  142.2972  166.7093 C.ar    1  UNL1        0.0692
     30 C         143.3995  141.3134  165.5953 C.ar    1  UNL1        0.1427
     31 F         143.9615  141.7722  164.2825 F       1  UNL1       -0.2043
     32 O         142.4323  142.8221  169.1362 O.3     1  UNL1       -0.3442
     33 S         141.1312  142.8532  169.8820 S.O2    1  UNL1        0.1337
     34 C         139.8301  142.8843  170.6277 C.3     1  UNL1        0.2230
     35 O         140.4235  143.2780  168.6295 O.2     1  UNL1       -0.1360
     36 O         141.8389  142.4285  171.1344 O.2     1  UNL1       -0.1360
@<TRIPOS>BOND
     1     8     7    1
     2     8     9    1
     3     9    10    1
     4    10    14    1
     5    14    15   ar
     6    15    16   ar
     7    16    17   ar
     8    17    19    1
     9    19    20    1
    10    19    21    1
    11    19    22    1
    12    17    18   ar
    13    10    11    1
    14    11    12    1
    15    12    13    1
    16    13     1    1
    17     1     2   ar
    18     2     3   ar
    19     3     4   ar
    20     4    23    1
    21    23    24    1
    22    24    25    1
    23    25    26   ar
    24    26    27   ar
    25    27    28   ar
    26    28    32    1
    27    32    33    1
    28    33    34    1
    29    33    35    2
    30    33    36    2
    31    28    29   ar
    32    29    30   ar
    33    30    31    1
    34     4     5   ar
    35     5     6   ar
    36    13     8    1
    37     6     1   ar
    38    18    14   ar
    39    30    25   ar
@<TRIPOS>MOLECULE
*****
 36 39 0 0 0
SMALL
GASTEIGER

@<TRIPOS>ATOM
      1 C         138.9460  142.3296  160.7674 C.ar    1  UNL1        0.2204
      2 N         137.7972  142.6502  161.6772 N.ar    1  UNL1       -0.2089
      3 C         137.5326  141.7953  162.8809 C.ar    1  UNL1        0.1402
      4 C         138.4167  140.6197  163.1750 C.ar    1  UNL1        0.1773
      5 C         139.5654  140.2991  162.2653 C.ar    1  UNL1        0.1402
      6 N         139.8301  141.1540  161.0615 N.ar    1  UNL1       -0.2089
      7 C         140.5215  144.8672  161.0468 C.3     1  UNL1        0.0233
      8 C         139.9984  144.4533  159.7033 C.3     1  UNL1        0.0955
      9 C         140.2629  145.3082  158.4996 C.3     1  UNL1        0.1149
     10 N         139.7398  144.8943  157.1561 N.pl3   1  UNL1       -0.2590
     11 C         138.9520  143.6255  157.0164 C.3     1  UNL1        0.1166
     12 C         138.6874  142.7706  158.2201 C.3     1  UNL1        0.1151
     13 N         139.2106  143.1845  159.5636 N.pl3   1  UNL1       -0.2764
     14 C         140.0044  145.7493  155.9523 C.ar    1  UNL1        0.3120
     15 N         140.7640  145.3356  154.7268 N.ar    1  UNL1       -0.0922
     16 N         140.7849  146.4986  153.7798 N.ar    1  UNL1       -0.1018
     17 C         140.0382  147.6312  154.4200 C.ar    1  UNL1        0.3233
     18 O         139.5558  147.1680  155.7626 O.2     1  UNL1       -0.4012
     19 C         139.8134  148.9885  153.8224 C.3     1  UNL1        0.4711
     20 F         139.5885  150.3458  153.2249 F       1  UNL1       -0.1619
     21 F         140.8045  148.6764  152.7407 F       1  UNL1       -0.1619
     22 F         138.8222  149.3006  154.9042 F       1  UNL1       -0.1619
     23 O         138.1520  139.7648  164.3788 O.3     1  UNL1       -0.4674
     24 C         139.1954  138.7989  164.8568 C.3     1  UNL1        0.2344
     25 C         140.1726  139.2141  165.9163 C.ar    1  UNL1        0.0488
     26 C         141.6427  139.2232  165.6186 C.ar    1  UNL1        0.0048
     27 C         142.6200  139.6384  166.6782 C.ar    1  UNL1        0.0398
     28 C         142.1271  140.0445  168.0354 C.ar    1  UNL1        0.1754
     29 C         140.6569  140.0354  168.3331 C.ar    1  UNL1        0.0692
     30 C         139.6797  139.6202  167.2736 C.ar    1  UNL1        0.1427
     31 F         138.2096  139.6112  167.5713 F       1  UNL1       -0.2043
     32 O         143.1043  140.4596  169.0949 O.3     1  UNL1       -0.3442
     33 S         142.9557  141.7895  169.7727 S.O2    1  UNL1        0.1337
     34 C         142.8071  143.1194  170.4504 C.3     1  UNL1        0.2230
     35 O         143.4714  142.4744  168.5419 O.2     1  UNL1       -0.1360
     36 O         142.4399  141.1046  171.0035 O.2     1  UNL1       -0.1360
@<TRIPOS>BOND
     1     8     7    1
     2     8     9    1
     3     9    10    1
     4    10    14    1
     5    14    15   ar
     6    15    16   ar
     7    16    17   ar
     8    17    19    1
     9    19    20    1
    10    19    21    1
    11    19    22    1
    12    17    18   ar
    13    10    11    1
    14    11    12    1
    15    12    13    1
    16    13     1    1
    17     1     2   ar
    18     2     3   ar
    19     3     4   ar
    20     4    23    1
    21    23    24    1
    22    24    25    1
    23    25    26   ar
    24    26    27   ar
    25    27    28   ar
    26    28    32    1
    27    32    33    1
    28    33    34    1
    29    33    35    2
    30    33    36    2
    31    28    29   ar
    32    29    30   ar
    33    30    31    1
    34     4     5   ar
    35     5     6   ar
    36    13     8    1
    37     6     1   ar
    38    18    14   ar
    39    30    25   ar
