@<TRIPOS>MOLECULE
*****
 36 39 0 0 0
SMALL
GASTEIGER

@<TRIPOS>ATOM
      1 C         138.6612  141.4058  158.3667 C.3     1  UNL1        0.0744
      2 C         140.0311  140.8764  158.0615 C.3     1  UNL1        0.0369
      3 C         141.2444  141.6024  158.5622 C.3     1  UNL1        0.0741
      4 N         141.0879  142.8577  159.3683 N.3     1  UNL1       -0.2688
      5 C         139.7181  143.3871  159.6735 C.3     1  UNL1        0.0741
      6 C         138.5047  142.6611  159.1727 C.3     1  UNL1        0.0369
      7 O         137.1190  142.4930  156.0345 O.2     1  UNL1       -0.2711
      8 C         136.6767  141.2235  156.6999 C.2     1  UNL1        0.2670
      9 N         137.4478  140.6799  157.8660 N.am    1  UNL1       -0.3028
     10 H         137.1576  139.8466  158.3027 H       1  UNL1        0.1495
     11 C         135.4633  140.4976  156.1991 C.3     1  UNL1        0.2893
     12 O         134.5409  139.8205  157.1689 O.3     1  UNL1       -0.4656
     13 C         133.0567  139.8824  156.9606 C.ar    1  UNL1        0.1401
     14 C         132.4750  140.8775  156.0008 C.ar    1  UNL1        0.0370
     15 C         130.9908  140.9394  155.7925 C.ar    1  UNL1        0.0040
     16 C         130.0884  140.0061  156.5439 C.ar    1  UNL1        0.0116
     17 C         130.6702  139.0109  157.5037 C.ar    1  UNL1        0.0607
     18 CL        129.7678  138.0776  158.2551 Cl      1  UNL1       -0.0821
     19 C         132.1543  138.9491  157.7120 C.ar    1  UNL1        0.0483
     20 C         142.3012  143.5836  159.8690 C.3     1  UNL1        0.1007
     21 C         142.7756  143.3701  161.2760 C.ar    1  UNL1        0.0129
     22 C         144.2022  143.3945  161.7388 C.ar    1  UNL1        0.0176
     23 C         144.2148  143.1341  163.2159 C.ar    1  UNL1        0.0799
     24 N         142.7959  142.9488  163.6661 N.ar    1  UNL1       -0.3038
     25 C         141.9065  143.0946  162.4672 C.ar    1  UNL1        0.0772
     26 C         142.3457  142.6671  165.0689 C.ar    1  UNL1        0.0643
     27 C         143.3589  142.4040  166.1433 C.ar    1  UNL1        0.0206
     28 C         142.9087  142.1223  167.5461 C.ar    1  UNL1        0.0387
     29 C         141.4452  142.1037  167.8746 C.ar    1  UNL1        0.1469
     30 C         140.4319  142.3668  166.8003 C.ar    1  UNL1        0.0387
     31 C         140.8822  142.6485  165.3974 C.ar    1  UNL1        0.0206
     32 O         140.9949  141.8220  169.2774 O.3     1  UNL1       -0.4045
     33 C         140.2074  142.8509  170.0331 C.3     1  UNL1        0.5753
     34 F         139.4199  143.8799  170.7888 F       1  UNL1       -0.1328
     35 F         141.2971  143.8554  169.8011 F       1  UNL1       -0.1328
     36 F         139.1177  141.8466  170.2651 F       1  UNL1       -0.1328
@<TRIPOS>BOND
     1     7     8    2
     2     8    11    1
     3    11    12    1
     4    12    13    1
     5    13    14   ar
     6    14    15   ar
     7    15    16   ar
     8    16    17   ar
     9    17    18    1
    10    17    19   ar
    11     8     9   am
    12     9     1    1
    13     1     2    1
    14     2     3    1
    15     3     4    1
    16     4    20    1
    17    20    21    1
    18    21    22   ar
    19    22    23   ar
    20    23    24   ar
    21    24    26    1
    22    26    27   ar
    23    27    28   ar
    24    28    29   ar
    25    29    32    1
    26    32    33    1
    27    33    34    1
    28    33    35    1
    29    33    36    1
    30    29    30   ar
    31    30    31   ar
    32    24    25   ar
    33     4     5    1
    34     5     6    1
    35    19    13   ar
    36     6     1    1
    37    25    21   ar
    38    31    26   ar
    39     9    10    1
@<TRIPOS>MOLECULE
*****
 36 39 0 0 0
SMALL
GASTEIGER

@<TRIPOS>ATOM
      1 C         142.7034  139.1477  157.7724 C.3     1  UNL1        0.0744
      2 C         142.8328  140.5460  157.2450 C.3     1  UNL1        0.0369
      3 C         143.3875  141.6297  158.1213 C.3     1  UNL1        0.0741
      4 N         143.8129  141.3151  159.5249 N.3     1  UNL1       -0.2688
      5 C         143.6836  139.9169  160.0522 C.3     1  UNL1        0.0741
      6 C         143.1289  138.8331  159.1760 C.3     1  UNL1        0.0369
      7 O         144.5173  137.6458  155.9139 O.2     1  UNL1       -0.2711
      8 C         143.0556  137.3130  155.9669 C.2     1  UNL1        0.2670
      9 N         142.1487  138.0640  156.8961 N.am    1  UNL1       -0.3028
     10 H         141.1893  137.8456  156.9309 H       1  UNL1        0.1495
     11 C         142.5009  136.2293  155.0906 C.3     1  UNL1        0.2893
     12 O         141.6764  135.1287  155.6897 O.3     1  UNL1       -0.4656
     13 C         142.3196  133.8240  156.0559 C.ar    1  UNL1        0.1401
     14 C         141.7423  132.5352  155.5504 C.ar    1  UNL1        0.0370
     15 C         142.3855  131.2306  155.9166 C.ar    1  UNL1        0.0040
     16 C         143.6060  131.2147  156.7883 C.ar    1  UNL1        0.0116
     17 C         144.1834  132.5035  157.2939 C.ar    1  UNL1        0.0607
     18 CL        145.4039  132.4876  158.1657 Cl      1  UNL1       -0.0821
     19 C         143.5402  133.8081  156.9277 C.ar    1  UNL1        0.0483
     20 C         144.3677  142.3988  160.4011 C.3     1  UNL1        0.1007
     21 C         143.5743  142.8952  161.5734 C.ar    1  UNL1        0.0129
     22 C         142.7173  144.1259  161.6005 C.ar    1  UNL1        0.0176
     23 C         142.1120  144.2393  162.9683 C.ar    1  UNL1        0.0799
     24 N         142.5950  143.0785  163.7866 N.ar    1  UNL1       -0.3038
     25 C         143.4988  142.2479  162.9245 C.ar    1  UNL1        0.0772
     26 C         142.2371  142.7978  165.2160 C.ar    1  UNL1        0.0643
     27 C         140.8057  142.8692  165.6586 C.ar    1  UNL1        0.0206
     28 C         140.4478  142.5885  167.0879 C.ar    1  UNL1        0.0387
     29 C         141.5213  142.2365  168.0747 C.ar    1  UNL1        0.1469
     30 C         142.9527  142.1651  167.6321 C.ar    1  UNL1        0.0387
     31 C         143.3106  142.4458  166.2027 C.ar    1  UNL1        0.0206
     32 O         141.1634  141.9558  169.5040 O.3     1  UNL1       -0.4045
     33 C         140.2251  142.8693  170.2355 C.3     1  UNL1        0.5753
     34 F         139.2869  143.7830  170.9670 F       1  UNL1       -0.1328
     35 F         141.2372  143.9735  170.1546 F       1  UNL1       -0.1328
     36 F         139.2130  141.7652  170.3164 F       1  UNL1       -0.1328
@<TRIPOS>BOND
     1     7     8    2
     2     8    11    1
     3    11    12    1
     4    12    13    1
     5    13    14   ar
     6    14    15   ar
     7    15    16   ar
     8    16    17   ar
     9    17    18    1
    10    17    19   ar
    11     8     9   am
    12     9     1    1
    13     1     2    1
    14     2     3    1
    15     3     4    1
    16     4    20    1
    17    20    21    1
    18    21    22   ar
    19    22    23   ar
    20    23    24   ar
    21    24    26    1
    22    26    27   ar
    23    27    28   ar
    24    28    29   ar
    25    29    32    1
    26    32    33    1
    27    33    34    1
    28    33    35    1
    29    33    36    1
    30    29    30   ar
    31    30    31   ar
    32    24    25   ar
    33     4     5    1
    34     5     6    1
    35    19    13   ar
    36     6     1    1
    37    25    21   ar
    38    31    26   ar
    39     9    10    1
@<TRIPOS>MOLECULE
*****
 36 39 0 0 0
SMALL
GASTEIGER

@<TRIPOS>ATOM
      1 C         139.8794  142.7172  158.0716 C.3     1  UNL1        0.0744
      2 C         139.7958  141.2649  157.7057 C.3     1  UNL1        0.0369
      3 C         139.0195  140.3170  158.5709 C.3     1  UNL1        0.0741
      4 N         138.3268  140.8213  159.8021 N.3     1  UNL1       -0.2688
      5 C         138.4104  142.2735  160.1681 C.3     1  UNL1        0.0741
      6 C         139.1867  143.2215  159.3028 C.3     1  UNL1        0.0369
      7 O         138.4560  144.3949  156.0322 O.2     1  UNL1       -0.2711
      8 C         139.9440  144.5040  156.1867 C.2     1  UNL1        0.2670
      9 N         140.6557  143.6652  157.2063 N.am    1  UNL1       -0.3028
     10 H         141.6324  143.7368  157.3077 H       1  UNL1        0.1495
     11 C         140.7203  145.4520  155.3213 C.3     1  UNL1        0.2893
     12 O         140.0047  146.3156  154.3253 O.3     1  UNL1       -0.4656
     13 C         139.6125  147.7162  154.6920 C.ar    1  UNL1        0.1401
     14 C         139.8374  148.8367  153.7205 C.ar    1  UNL1        0.0370
     15 C         139.4452  150.2373  154.0872 C.ar    1  UNL1        0.0040
     16 C         138.8281  150.5174  155.4254 C.ar    1  UNL1        0.0116
     17 C         138.6032  149.3969  156.3969 C.ar    1  UNL1        0.0607
     18 CL        137.9861  149.6770  157.7351 Cl      1  UNL1       -0.0821
     19 C         138.9954  147.9963  156.0302 C.ar    1  UNL1        0.0483
     20 C         137.5505  139.8733  160.6674 C.3     1  UNL1        0.1007
     21 C         138.0808  139.4822  162.0149 C.ar    1  UNL1        0.0129
     22 C         138.4035  138.0881  162.4648 C.ar    1  UNL1        0.0176
     23 C         138.9037  138.1609  163.8771 C.ar    1  UNL1        0.0799
     24 N         138.8901  139.6000  164.3001 N.ar    1  UNL1       -0.3038
     25 C         138.3816  140.4166  163.1492 C.ar    1  UNL1        0.0772
     26 C         139.3112  140.1295  165.6389 C.ar    1  UNL1        0.0643
     27 C         140.0925  141.4068  165.7282 C.ar    1  UNL1        0.0206
     28 C         140.5136  141.9363  167.0670 C.ar    1  UNL1        0.0387
     29 C         140.1534  141.1884  168.3164 C.ar    1  UNL1        0.1469
     30 C         139.3721  139.9111  168.2270 C.ar    1  UNL1        0.0387
     31 C         138.9510  139.3816  166.8883 C.ar    1  UNL1        0.0206
     32 O         140.5744  141.7179  169.6552 O.3     1  UNL1       -0.4045
     33 C         140.6055  143.1973  169.9005 C.3     1  UNL1        0.5753
     34 F         140.6364  144.6768  170.1460 F       1  UNL1       -0.1328
     35 F         139.2561  143.1177  170.5510 F       1  UNL1       -0.1328
     36 F         141.9548  143.2770  169.2502 F       1  UNL1       -0.1328
@<TRIPOS>BOND
     1     7     8    2
     2     8    11    1
     3    11    12    1
     4    12    13    1
     5    13    14   ar
     6    14    15   ar
     7    15    16   ar
     8    16    17   ar
     9    17    18    1
    10    17    19   ar
    11     8     9   am
    12     9     1    1
    13     1     2    1
    14     2     3    1
    15     3     4    1
    16     4    20    1
    17    20    21    1
    18    21    22   ar
    19    22    23   ar
    20    23    24   ar
    21    24    26    1
    22    26    27   ar
    23    27    28   ar
    24    28    29   ar
    25    29    32    1
    26    32    33    1
    27    33    34    1
    28    33    35    1
    29    33    36    1
    30    29    30   ar
    31    30    31   ar
    32    24    25   ar
    33     4     5    1
    34     5     6    1
    35    19    13   ar
    36     6     1    1
    37    25    21   ar
    38    31    26   ar
    39     9    10    1
@<TRIPOS>MOLECULE
*****
 36 39 0 0 0
SMALL
GASTEIGER

@<TRIPOS>ATOM
      1 C         140.7019  139.0562  160.7882 C.3     1  UNL1        0.0744
      2 C         139.8277  138.6474  159.6399 C.3     1  UNL1        0.0369
      3 C         140.4297  138.4081  158.2870 C.3     1  UNL1        0.0741
      4 N         141.9059  138.5777  158.0824 N.3     1  UNL1       -0.2688
      5 C         142.7802  138.9865  159.2306 C.3     1  UNL1        0.0741
      6 C         142.1782  139.2257  160.5836 C.3     1  UNL1        0.0369
      7 O         140.8793  136.9376  162.9048 O.2     1  UNL1       -0.2711
      8 C         140.1886  138.2362  163.1994 C.2     1  UNL1        0.2670
      9 N         140.0999  139.2954  162.1411 N.am    1  UNL1       -0.3028
     10 H         139.6466  140.1477  162.3344 H       1  UNL1        0.1495
     11 C         139.5866  138.4754  164.5523 C.3     1  UNL1        0.2893
     12 O         138.4473  139.4388  164.7066 O.3     1  UNL1       -0.4656
     13 C         138.7219  140.9028  164.8838 C.ar    1  UNL1        0.1401
     14 C         139.6978  141.3621  165.9261 C.ar    1  UNL1        0.0370
     15 C         139.9723  142.8260  166.1033 C.ar    1  UNL1        0.0040
     16 C         139.2708  143.8307  165.2382 C.ar    1  UNL1        0.0116
     17 C         138.2948  143.3715  164.1958 C.ar    1  UNL1        0.0607
     18 CL        137.5934  144.3762  163.3307 Cl      1  UNL1       -0.0821
     19 C         138.0204  141.9075  164.0186 C.ar    1  UNL1        0.0483
     20 C         142.5079  138.3384  156.7295 C.3     1  UNL1        0.1007
     21 C         142.7443  136.9365  156.2510 C.ar    1  UNL1        0.0129
     22 C         142.7310  136.4783  154.8228 C.ar    1  UNL1        0.0176
     23 C         143.0140  135.0054  154.8059 C.ar    1  UNL1        0.0799
     24 N         143.2022  134.5532  156.2237 N.ar    1  UNL1       -0.3038
     25 C         143.0356  135.7467  157.1168 C.ar    1  UNL1        0.0772
     26 C         143.5041  133.1533  156.6700 C.ar    1  UNL1        0.0643
     27 C         142.6458  132.0155  156.2024 C.ar    1  UNL1        0.0206
     28 C         142.9477  130.6157  156.6487 C.ar    1  UNL1        0.0387
     29 C         144.1079  130.3536  157.5626 C.ar    1  UNL1        0.1469
     30 C         144.9663  131.4914  158.0302 C.ar    1  UNL1        0.0387
     31 C         144.6644  132.8913  157.5839 C.ar    1  UNL1        0.0206
     32 O         144.4098  128.9537  158.0089 O.3     1  UNL1       -0.4045
     33 C         144.4033  128.6146  159.4700 C.3     1  UNL1        0.5753
     34 F         144.3970  128.2753  160.9311 F       1  UNL1       -0.1328
     35 F         145.8766  128.3382  159.4123 F       1  UNL1       -0.1328
     36 F         142.9302  128.8909  159.5277 F       1  UNL1       -0.1328
@<TRIPOS>BOND
     1     7     8    2
     2     8    11    1
     3    11    12    1
     4    12    13    1
     5    13    14   ar
     6    14    15   ar
     7    15    16   ar
     8    16    17   ar
     9    17    18    1
    10    17    19   ar
    11     8     9   am
    12     9     1    1
    13     1     2    1
    14     2     3    1
    15     3     4    1
    16     4    20    1
    17    20    21    1
    18    21    22   ar
    19    22    23   ar
    20    23    24   ar
    21    24    26    1
    22    26    27   ar
    23    27    28   ar
    24    28    29   ar
    25    29    32    1
    26    32    33    1
    27    33    34    1
    28    33    35    1
    29    33    36    1
    30    29    30   ar
    31    30    31   ar
    32    24    25   ar
    33     4     5    1
    34     5     6    1
    35    19    13   ar
    36     6     1    1
    37    25    21   ar
    38    31    26   ar
    39     9    10    1
@<TRIPOS>MOLECULE
*****
 36 39 0 0 0
SMALL
GASTEIGER

@<TRIPOS>ATOM
      1 C         142.2276  138.4651  158.3765 C.3     1  UNL1        0.0744
      2 C         142.9285  139.7810  158.5420 C.3     1  UNL1        0.0369
      3 C         142.1727  140.9754  159.0440 C.3     1  UNL1        0.0741
      4 N         140.7160  140.8541  159.3804 N.3     1  UNL1       -0.2688
      5 C         140.0150  139.5384  159.2149 C.3     1  UNL1        0.0741
      6 C         140.7708  138.3438  158.7129 C.3     1  UNL1        0.0369
      7 O         142.3522  137.8973  155.4334 O.2     1  UNL1       -0.2711
      8 C         143.0457  136.9868  156.4030 C.2     1  UNL1        0.2670
      9 N         142.9834  137.2707  157.8745 N.am    1  UNL1       -0.3028
     10 H         143.4385  136.6731  158.5109 H       1  UNL1        0.1495
     11 C         143.8015  135.7923  155.9009 C.3     1  UNL1        0.2893
     12 O         143.9443  134.5765  156.7677 O.3     1  UNL1       -0.4656
     13 C         143.6340  133.2183  156.2117 C.ar    1  UNL1        0.1401
     14 C         144.7166  132.1854  156.1070 C.ar    1  UNL1        0.0370
     15 C         144.4063  130.8273  155.5511 C.ar    1  UNL1        0.0040
     16 C         143.0132  130.5020  155.0998 C.ar    1  UNL1        0.0116
     17 C         141.9306  131.5349  155.2045 C.ar    1  UNL1        0.0607
     18 CL        140.5375  131.2096  154.7533 Cl      1  UNL1       -0.0821
     19 C         142.2409  132.8930  155.7605 C.ar    1  UNL1        0.0483
     20 C         139.9602  142.0486  159.8824 C.3     1  UNL1        0.1007
     21 C         139.3150  142.0133  161.2362 C.ar    1  UNL1        0.0129
     22 C         138.0109  142.6542  161.6083 C.ar    1  UNL1        0.0176
     23 C         137.7506  142.3679  163.0576 C.ar    1  UNL1        0.0799
     24 N         138.8940  141.5500  163.5811 N.ar    1  UNL1       -0.3038
     25 C         139.8608  141.3309  162.4554 C.ar    1  UNL1        0.0772
     26 C         139.0441  141.0408  164.9840 C.ar    1  UNL1        0.0643
     27 C         138.2660  139.8396  165.4331 C.ar    1  UNL1        0.0206
     28 C         138.4161  139.3303  166.8360 C.ar    1  UNL1        0.0387
     29 C         139.3442  140.0223  167.7898 C.ar    1  UNL1        0.1469
     30 C         140.1223  141.2236  167.3407 C.ar    1  UNL1        0.0387
     31 C         139.9722  141.7328  165.9378 C.ar    1  UNL1        0.0206
     32 O         139.4943  139.5131  169.1927 O.3     1  UNL1       -0.4045
     33 C         140.0219  140.4178  170.2665 C.3     1  UNL1        0.5753
     34 F         140.5496  141.3225  171.3404 F       1  UNL1       -0.1328
     35 F         141.2757  139.5977  170.3414 F       1  UNL1       -0.1328
     36 F         138.7682  141.2379  170.1916 F       1  UNL1       -0.1328
@<TRIPOS>BOND
     1     7     8    2
     2     8    11    1
     3    11    12    1
     4    12    13    1
     5    13    14   ar
     6    14    15   ar
     7    15    16   ar
     8    16    17   ar
     9    17    18    1
    10    17    19   ar
    11     8     9   am
    12     9     1    1
    13     1     2    1
    14     2     3    1
    15     3     4    1
    16     4    20    1
    17    20    21    1
    18    21    22   ar
    19    22    23   ar
    20    23    24   ar
    21    24    26    1
    22    26    27   ar
    23    27    28   ar
    24    28    29   ar
    25    29    32    1
    26    32    33    1
    27    33    34    1
    28    33    35    1
    29    33    36    1
    30    29    30   ar
    31    30    31   ar
    32    24    25   ar
    33     4     5    1
    34     5     6    1
    35    19    13   ar
    36     6     1    1
    37    25    21   ar
    38    31    26   ar
    39     9    10    1
@<TRIPOS>MOLECULE
*****
 36 39 0 0 0
SMALL
GASTEIGER

@<TRIPOS>ATOM
      1 C         139.5920  139.1667  158.3011 C.3     1  UNL1        0.0744
      2 C         139.3058  138.7585  159.7159 C.3     1  UNL1        0.0369
      3 C         140.4334  138.3832  160.6310 C.3     1  UNL1        0.0741
      4 N         141.8474  138.4161  160.1314 N.3     1  UNL1       -0.2688
      5 C         142.1337  138.8242  158.7167 C.3     1  UNL1        0.0741
      6 C         141.0060  139.1996  157.8015 C.3     1  UNL1        0.0369
      7 O         138.1380  141.7605  158.6982 O.2     1  UNL1       -0.2711
      8 C         137.7373  140.8389  157.5846 C.2     1  UNL1        0.2670
      9 N         138.4644  139.5420  157.3860 N.am    1  UNL1       -0.3028
     10 H         138.2014  138.9372  156.6551 H       1  UNL1        0.1495
     11 C         136.6096  141.2143  156.6694 C.3     1  UNL1        0.2893
     12 O         135.7369  140.1473  156.0778 O.3     1  UNL1       -0.4656
     13 C         134.2508  140.1989  156.2753 C.ar    1  UNL1        0.1401
     14 C         133.6023  139.3371  157.3177 C.ar    1  UNL1        0.0370
     15 C         132.1163  139.3887  157.5151 C.ar    1  UNL1        0.0040
     16 C         131.2788  140.3022  156.6700 C.ar    1  UNL1        0.0116
     17 C         131.9272  141.1640  155.6276 C.ar    1  UNL1        0.0607
     18 CL        131.0897  142.0774  154.7825 Cl      1  UNL1       -0.0821
     19 C         133.4133  141.1124  155.4302 C.ar    1  UNL1        0.0483
     20 C         142.9751  138.0408  161.0465 C.3     1  UNL1        0.1007
     21 C         143.3796  138.9651  162.1565 C.ar    1  UNL1        0.0129
     22 C         144.4651  139.9983  162.0921 C.ar    1  UNL1        0.0176
     23 C         144.5260  140.6902  163.4216 C.ar    1  UNL1        0.0799
     24 N         143.4781  140.0846  164.3077 N.ar    1  UNL1       -0.3038
     25 C         142.7696  139.0184  163.5258 C.ar    1  UNL1        0.0772
     26 C         143.1894  140.4764  165.7266 C.ar    1  UNL1        0.0643
     27 C         142.8183  139.4282  166.7333 C.ar    1  UNL1        0.0206
     28 C         142.5296  139.8200  168.1522 C.ar    1  UNL1        0.0387
     29 C         142.6120  141.2599  168.5642 C.ar    1  UNL1        0.1469
     30 C         142.9831  142.3081  167.5575 C.ar    1  UNL1        0.0387
     31 C         143.2718  141.9163  166.1386 C.ar    1  UNL1        0.0206
     32 O         142.3233  141.6517  169.9831 O.3     1  UNL1       -0.4045
     33 C         141.0859  142.4350  170.3079 C.3     1  UNL1        0.5753
     34 F         139.8487  143.2184  170.6327 F       1  UNL1       -0.1328
     35 F         141.8717  143.7102  170.2257 F       1  UNL1       -0.1328
     36 F         140.3002  141.1600  170.3900 F       1  UNL1       -0.1328
@<TRIPOS>BOND
     1     7     8    2
     2     8    11    1
     3    11    12    1
     4    12    13    1
     5    13    14   ar
     6    14    15   ar
     7    15    16   ar
     8    16    17   ar
     9    17    18    1
    10    17    19   ar
    11     8     9   am
    12     9     1    1
    13     1     2    1
    14     2     3    1
    15     3     4    1
    16     4    20    1
    17    20    21    1
    18    21    22   ar
    19    22    23   ar
    20    23    24   ar
    21    24    26    1
    22    26    27   ar
    23    27    28   ar
    24    28    29   ar
    25    29    32    1
    26    32    33    1
    27    33    34    1
    28    33    35    1
    29    33    36    1
    30    29    30   ar
    31    30    31   ar
    32    24    25   ar
    33     4     5    1
    34     5     6    1
    35    19    13   ar
    36     6     1    1
    37    25    21   ar
    38    31    26   ar
    39     9    10    1
@<TRIPOS>MOLECULE
*****
 36 39 0 0 0
SMALL
GASTEIGER

@<TRIPOS>ATOM
      1 C         140.6192  138.9860  157.3465 C.3     1  UNL1        0.0744
      2 C         139.7839  140.2026  157.0777 C.3     1  UNL1        0.0369
      3 C         138.7712  140.6552  158.0875 C.3     1  UNL1        0.0741
      4 N         138.5937  139.8912  159.3660 N.3     1  UNL1       -0.2688
      5 C         139.4289  138.6746  159.6349 C.3     1  UNL1        0.0741
      6 C         140.4417  138.2220  158.6251 C.3     1  UNL1        0.0369
      7 O         143.5484  139.2488  157.9384 O.2     1  UNL1       -0.2711
      8 C         143.0964  138.6648  156.6327 C.2     1  UNL1        0.2670
      9 N         141.6318  138.5335  156.3368 N.am    1  UNL1       -0.3028
     10 H         141.3352  138.1502  155.4798 H       1  UNL1        0.1495
     11 C         144.1092  138.2123  155.6230 C.3     1  UNL1        0.2893
     12 O         144.6384  136.8095  155.6683 O.3     1  UNL1       -0.4656
     13 C         143.7123  135.6509  155.4439 C.ar    1  UNL1        0.1401
     14 C         142.7128  135.6952  154.3264 C.ar    1  UNL1        0.0370
     15 C         141.7868  134.5367  154.1021 C.ar    1  UNL1        0.0040
     16 C         141.8603  133.3339  154.9954 C.ar    1  UNL1        0.0116
     17 C         142.8599  133.2896  156.1129 C.ar    1  UNL1        0.0607
     18 CL        142.9334  132.0868  157.0061 Cl      1  UNL1       -0.0821
     19 C         143.7859  134.4481  156.3372 C.ar    1  UNL1        0.0483
     20 C         137.5810  140.3437  160.3758 C.3     1  UNL1        0.1007
     21 C         138.0231  141.0949  161.5967 C.ar    1  UNL1        0.0129
     22 C         138.0214  142.5855  161.7634 C.ar    1  UNL1        0.0176
     23 C         138.5417  142.8991  163.1349 C.ar    1  UNL1        0.0799
     24 N         138.8649  141.6022  163.8158 N.ar    1  UNL1       -0.3038
     25 C         138.5444  140.4871  162.8651 C.ar    1  UNL1        0.0772
     26 C         139.4125  141.4476  165.2037 C.ar    1  UNL1        0.0643
     27 C         139.2052  140.1648  165.9531 C.ar    1  UNL1        0.0206
     28 C         139.7527  140.0102  167.3410 C.ar    1  UNL1        0.0387
     29 C         140.5076  141.1383  167.9794 C.ar    1  UNL1        0.1469
     30 C         140.7149  142.4210  167.2300 C.ar    1  UNL1        0.0387
     31 C         140.1674  142.5756  165.8421 C.ar    1  UNL1        0.0206
     32 O         141.0552  140.9836  169.3673 O.3     1  UNL1       -0.4045
     33 C         141.7621  139.7197  169.7581 C.3     1  UNL1        0.5753
     34 F         142.4690  138.4557  170.1490 F       1  UNL1       -0.1328
     35 F         140.5635  139.2955  170.5541 F       1  UNL1       -0.1328
     36 F         142.9606  140.1439  168.9622 F       1  UNL1       -0.1328
@<TRIPOS>BOND
     1     7     8    2
     2     8    11    1
     3    11    12    1
     4    12    13    1
     5    13    14   ar
     6    14    15   ar
     7    15    16   ar
     8    16    17   ar
     9    17    18    1
    10    17    19   ar
    11     8     9   am
    12     9     1    1
    13     1     2    1
    14     2     3    1
    15     3     4    1
    16     4    20    1
    17    20    21    1
    18    21    22   ar
    19    22    23   ar
    20    23    24   ar
    21    24    26    1
    22    26    27   ar
    23    27    28   ar
    24    28    29   ar
    25    29    32    1
    26    32    33    1
    27    33    34    1
    28    33    35    1
    29    33    36    1
    30    29    30   ar
    31    30    31   ar
    32    24    25   ar
    33     4     5    1
    34     5     6    1
    35    19    13   ar
    36     6     1    1
    37    25    21   ar
    38    31    26   ar
    39     9    10    1
@<TRIPOS>MOLECULE
*****
 36 39 0 0 0
SMALL
GASTEIGER

@<TRIPOS>ATOM
      1 C         141.0631  138.8927  158.6111 C.3     1  UNL1        0.0744
      2 C         139.6656  138.6017  159.0719 C.3     1  UNL1        0.0369
      3 C         138.8255  139.6976  159.6576 C.3     1  UNL1        0.0741
      4 N         139.3828  141.0846  159.7826 N.3     1  UNL1       -0.2688
      5 C         140.7803  141.3757  159.3219 C.3     1  UNL1        0.0741
      6 C         141.6205  140.2797  158.7361 C.3     1  UNL1        0.0369
      7 O         140.5319  137.9230  155.8224 O.2     1  UNL1       -0.2711
      8 C         141.6376  137.3119  156.6311 C.2     1  UNL1        0.2670
      9 N         141.9033  137.7968  158.0254 N.am    1  UNL1       -0.3028
     10 H         142.6290  137.3957  158.5562 H       1  UNL1        0.1495
     11 C         142.4778  136.2159  156.0453 C.3     1  UNL1        0.2893
     12 O         141.9337  134.8211  155.9540 O.3     1  UNL1       -0.4656
     13 C         142.7449  133.6650  156.4596 C.ar    1  UNL1        0.1401
     14 C         143.9427  133.9121  157.3280 C.ar    1  UNL1        0.0370
     15 C         144.7538  132.7561  157.8335 C.ar    1  UNL1        0.0040
     16 C         144.3671  131.3529  157.4706 C.ar    1  UNL1        0.0116
     17 C         143.1693  131.1058  156.6022 C.ar    1  UNL1        0.0607
     18 CL        142.7825  129.7027  156.2394 Cl      1  UNL1       -0.0821
     19 C         142.3582  132.2619  156.0967 C.ar    1  UNL1        0.0483
     20 C         138.5427  142.1805  160.3683 C.3     1  UNL1        0.1007
     21 C         138.5435  142.4159  161.8497 C.ar    1  UNL1        0.0129
     22 C         138.0450  143.6468  162.5472 C.ar    1  UNL1        0.0176
     23 C         138.2363  143.4533  164.0223 C.ar    1  UNL1        0.0799
     24 N         138.8530  142.1028  164.2365 N.ar    1  UNL1       -0.3038
     25 C         139.0428  141.4617  162.8938 C.ar    1  UNL1        0.0772
     26 C         139.2161  141.4994  165.5609 C.ar    1  UNL1        0.0643
     27 C         140.0785  142.2630  166.5218 C.ar    1  UNL1        0.0206
     28 C         140.4416  141.6597  167.8462 C.ar    1  UNL1        0.0387
     29 C         139.9423  140.2927  168.2097 C.ar    1  UNL1        0.1469
     30 C         139.0800  139.5291  167.2489 C.ar    1  UNL1        0.0387
     31 C         138.7169  140.1324  165.9245 C.ar    1  UNL1        0.0206
     32 O         140.3054  139.6893  169.5341 O.3     1  UNL1       -0.4045
     33 C         141.6865  139.8747  170.0893 C.3     1  UNL1        0.5753
     34 F         143.0676  140.0601  170.6446 F       1  UNL1       -0.1328
     35 F         141.1154  140.6136  171.2632 F       1  UNL1       -0.1328
     36 F         142.2576  139.1357  168.9156 F       1  UNL1       -0.1328
@<TRIPOS>BOND
     1     7     8    2
     2     8    11    1
     3    11    12    1
     4    12    13    1
     5    13    14   ar
     6    14    15   ar
     7    15    16   ar
     8    16    17   ar
     9    17    18    1
    10    17    19   ar
    11     8     9   am
    12     9     1    1
    13     1     2    1
    14     2     3    1
    15     3     4    1
    16     4    20    1
    17    20    21    1
    18    21    22   ar
    19    22    23   ar
    20    23    24   ar
    21    24    26    1
    22    26    27   ar
    23    27    28   ar
    24    28    29   ar
    25    29    32    1
    26    32    33    1
    27    33    34    1
    28    33    35    1
    29    33    36    1
    30    29    30   ar
    31    30    31   ar
    32    24    25   ar
    33     4     5    1
    34     5     6    1
    35    19    13   ar
    36     6     1    1
    37    25    21   ar
    38    31    26   ar
    39     9    10    1
@<TRIPOS>MOLECULE
*****
 36 39 0 0 0
SMALL
GASTEIGER

@<TRIPOS>ATOM
      1 C         139.5555  139.8000  160.1102 C.3     1  UNL1        0.0744
      2 C         139.7638  139.0108  158.8517 C.3     1  UNL1        0.0369
      3 C         139.3559  139.5877  157.5285 C.3     1  UNL1        0.0741
      4 N         138.7399  140.9538  157.4638 N.3     1  UNL1       -0.2688
      5 C         138.5317  141.7430  158.7223 C.3     1  UNL1        0.0741
      6 C         138.9395  141.1661  160.0455 C.3     1  UNL1        0.0369
      7 O         137.5741  138.2519  161.7463 O.2     1  UNL1       -0.2711
      8 C         138.9726  138.4490  162.2514 C.2     1  UNL1        0.2670
      9 N         139.9634  139.2231  161.4334 N.am    1  UNL1       -0.3028
     10 H         140.8813  139.3525  161.7649 H       1  UNL1        0.1495
     11 C         139.3804  137.8721  163.5747 C.3     1  UNL1        0.2893
     12 O         138.7150  138.3411  164.8345 O.3     1  UNL1       -0.4656
     13 C         139.5351  138.9446  165.9360 C.ar    1  UNL1        0.1401
     14 C         141.0192  139.0893  165.7731 C.ar    1  UNL1        0.0370
     15 C         141.8392  139.6928  166.8746 C.ar    1  UNL1        0.0040
     16 C         141.1751  140.1516  168.1389 C.ar    1  UNL1        0.0116
     17 C         139.6910  140.0070  168.3018 C.ar    1  UNL1        0.0607
     18 CL        139.0270  140.4658  169.5661 Cl      1  UNL1       -0.0821
     19 C         138.8710  139.4035  167.2003 C.ar    1  UNL1        0.0483
     20 C         138.3320  141.5308  156.1407 C.3     1  UNL1        0.1007
     21 C         136.9114  141.4085  155.6750 C.ar    1  UNL1        0.0129
     22 C         136.3615  141.9223  154.3774 C.ar    1  UNL1        0.0176
     23 C         134.9015  141.5823  154.3257 C.ar    1  UNL1        0.0799
     24 N         134.5489  140.8584  155.5913 N.ar    1  UNL1       -0.3038
     25 C         135.7911  140.7510  156.4252 C.ar    1  UNL1        0.0772
     26 C         133.1924  140.3340  155.9585 C.ar    1  UNL1        0.0643
     27 C         133.0553  138.9705  156.5685 C.ar    1  UNL1        0.0206
     28 C         131.6988  138.4461  156.9356 C.ar    1  UNL1        0.0387
     29 C         130.4794  139.2853  156.6929 C.ar    1  UNL1        0.1469
     30 C         130.6165  140.6488  156.0829 C.ar    1  UNL1        0.0387
     31 C         131.9730  141.1732  155.7157 C.ar    1  UNL1        0.0206
     32 O         129.1229  138.7609  157.0601 O.3     1  UNL1       -0.4045
     33 C         128.9715  137.8161  158.2153 C.3     1  UNL1        0.5753
     34 F         128.8201  136.8713  159.3704 F       1  UNL1       -0.1328
     35 F         128.8142  136.6715  157.2585 F       1  UNL1       -0.1328
     36 F         129.1287  138.9606  159.1720 F       1  UNL1       -0.1328
@<TRIPOS>BOND
     1     7     8    2
     2     8    11    1
     3    11    12    1
     4    12    13    1
     5    13    14   ar
     6    14    15   ar
     7    15    16   ar
     8    16    17   ar
     9    17    18    1
    10    17    19   ar
    11     8     9   am
    12     9     1    1
    13     1     2    1
    14     2     3    1
    15     3     4    1
    16     4    20    1
    17    20    21    1
    18    21    22   ar
    19    22    23   ar
    20    23    24   ar
    21    24    26    1
    22    26    27   ar
    23    27    28   ar
    24    28    29   ar
    25    29    32    1
    26    32    33    1
    27    33    34    1
    28    33    35    1
    29    33    36    1
    30    29    30   ar
    31    30    31   ar
    32    24    25   ar
    33     4     5    1
    34     5     6    1
    35    19    13   ar
    36     6     1    1
    37    25    21   ar
    38    31    26   ar
    39     9    10    1
