@<TRIPOS>MOLECULE
*****
 24 26 0 0 0
SMALL
GASTEIGER

@<TRIPOS>ATOM
      1 C         137.6292  139.8423  162.6848 C.2     1  UNL1        0.3516
      2 N         137.4376  139.0284  161.4395 N.2     1  UNL1       -0.0963
      3 H         136.8281  139.3444  160.7338 H       1  UNL1        0.3634
      4 C         138.5579  139.3608  163.7599 C.ar    1  UNL1        0.2266
      5 C         139.3036  138.0593  163.7629 C.ar    1  UNL1        0.0483
      6 C         140.1105  137.9903  165.0256 C.ar    1  UNL1        0.0409
      7 C         139.8633  139.2492  165.8030 C.ar    1  UNL1        0.1457
      8 O         138.9037  140.0961  165.0207 O.2     1  UNL1       -0.4460
      9 C         140.4692  139.5995  167.1296 C.ar    1  UNL1        0.0346
     10 C         141.9590  139.5784  167.3028 C.ar    1  UNL1        0.0039
     11 C         142.5649  139.9288  168.6294 C.ar    1  UNL1        0.0115
     12 C         141.6811  140.3002  169.7830 C.ar    1  UNL1        0.0577
     13 CL        142.2870  140.6506  171.1097 Cl      1  UNL1       -0.0822
     14 C         140.1912  140.3214  169.6099 C.ar    1  UNL1        0.0115
     15 C         139.5853  139.9710  168.2832 C.ar    1  UNL1        0.0039
     16 N         136.8923  141.1376  162.8550 N.pl3   1  UNL1       -0.1968
     17 H         135.9080  141.1457  162.8699 H       1  UNL1        0.2986
     18 C         138.5005  145.1032  165.8026 C.3     1  UNL1        0.0311
     19 C         138.4593  144.4035  164.4764 C.ar    1  UNL1       -0.0185
     20 C         139.1808  144.9869  163.2979 C.ar    1  UNL1       -0.0040
     21 C         139.1396  144.2872  161.9717 C.ar    1  UNL1        0.0032
     22 C         138.3767  143.0041  161.8241 C.ar    1  UNL1        0.0401
     23 C         137.6552  142.4208  163.0026 C.ar    1  UNL1        0.1354
     24 C         137.6965  143.1205  164.3288 C.ar    1  UNL1        0.0359
@<TRIPOS>BOND
     1    18    19    1
     2    19    20   ar
     3    20    21   ar
     4    21    22   ar
     5    22    23   ar
     6    23    16    1
     7    16     1    1
     8     1     2    2
     9     1     4    1
    10     4     5   ar
    11     5     6   ar
    12     6     7   ar
    13     7     9    1
    14     9    10   ar
    15    10    11   ar
    16    11    12   ar
    17    12    13    1
    18    12    14   ar
    19    14    15   ar
    20     7     8   ar
    21    23    24   ar
    22    24    19   ar
    23     8     4   ar
    24    15     9   ar
    25    16    17    1
    26     2     3    1
@<TRIPOS>MOLECULE
*****
 24 26 0 0 0
SMALL
GASTEIGER

@<TRIPOS>ATOM
      1 C         137.7441  142.3824  162.4703 C.2     1  UNL1        0.3516
      2 N         137.6710  143.2269  161.2328 N.2     1  UNL1       -0.0963
      3 H         137.2581  142.8669  160.4148 H       1  UNL1        0.3634
      4 C         138.3732  142.9310  163.7166 C.ar    1  UNL1        0.2266
      5 C         138.0419  144.2407  164.3684 C.ar    1  UNL1        0.0483
      6 C         138.9080  144.3854  165.5846 C.ar    1  UNL1        0.0409
      7 C         139.7746  143.1651  165.6843 C.ar    1  UNL1        0.1457
      8 O         139.4441  142.2662  164.5298 O.2     1  UNL1       -0.4460
      9 C         140.7929  142.8916  166.7511 C.ar    1  UNL1        0.0346
     10 C         140.4255  143.0492  168.1969 C.ar    1  UNL1        0.0039
     11 C         141.4438  142.7758  169.2637 C.ar    1  UNL1        0.0115
     12 C         142.8297  142.3448  168.8849 C.ar    1  UNL1        0.0577
     13 CL        143.8480  142.0713  169.9517 Cl      1  UNL1       -0.0822
     14 C         143.1972  142.1871  167.4391 C.ar    1  UNL1        0.0115
     15 C         142.1788  142.4606  166.3723 C.ar    1  UNL1        0.0039
     16 N         137.1880  140.9893  162.4615 N.pl3   1  UNL1       -0.1968
     17 H         136.2160  140.8477  162.3958 H       1  UNL1        0.2986
     18 C         139.4974  137.2897  165.2863 C.3     1  UNL1        0.0311
     19 C         139.2676  137.9621  163.9653 C.ar    1  UNL1       -0.0185
     20 C         139.9628  137.4573  162.7358 C.ar    1  UNL1       -0.0040
     21 C         139.7330  138.1297  161.4148 C.ar    1  UNL1        0.0032
     22 C         138.8081  139.3071  161.3234 C.ar    1  UNL1        0.0401
     23 C         138.1130  139.8119  162.5529 C.ar    1  UNL1        0.1354
     24 C         138.3427  139.1395  163.8739 C.ar    1  UNL1        0.0359
@<TRIPOS>BOND
     1    18    19    1
     2    19    20   ar
     3    20    21   ar
     4    21    22   ar
     5    22    23   ar
     6    23    16    1
     7    16     1    1
     8     1     2    2
     9     1     4    1
    10     4     5   ar
    11     5     6   ar
    12     6     7   ar
    13     7     9    1
    14     9    10   ar
    15    10    11   ar
    16    11    12   ar
    17    12    13    1
    18    12    14   ar
    19    14    15   ar
    20     7     8   ar
    21    23    24   ar
    22    24    19   ar
    23     8     4   ar
    24    15     9   ar
    25    16    17    1
    26     2     3    1
@<TRIPOS>MOLECULE
*****
 24 26 0 0 0
SMALL
GASTEIGER

@<TRIPOS>ATOM
      1 C         142.3259  144.0770  161.7364 C.2     1  UNL1        0.3516
      2 N         143.1018  143.7226  160.5025 N.2     1  UNL1       -0.0963
      3 H         142.7496  143.9601  159.6144 H       1  UNL1        0.3634
      4 C         142.8625  143.7151  163.0896 C.ar    1  UNL1        0.2266
      5 C         144.0055  144.3853  163.7928 C.ar    1  UNL1        0.0483
      6 C         144.1998  143.7039  165.1150 C.ar    1  UNL1        0.0409
      7 C         143.1768  142.6127  165.2288 C.ar    1  UNL1        0.1457
      8 O         142.3504  142.6197  163.9771 O.2     1  UNL1       -0.4460
      9 C         143.0097  141.6786  166.3904 C.ar    1  UNL1        0.0346
     10 C         142.8888  140.2022  166.1543 C.ar    1  UNL1        0.0039
     11 C         142.7217  139.2681  167.3159 C.ar    1  UNL1        0.0115
     12 C         142.6755  139.8103  168.7137 C.ar    1  UNL1        0.0577
     13 CL        142.5084  138.8761  169.8754 Cl      1  UNL1       -0.0822
     14 C         142.7964  141.2867  168.9499 C.ar    1  UNL1        0.0115
     15 C         142.9635  142.2208  167.7882 C.ar    1  UNL1        0.0039
     16 N         141.0134  144.7934  161.6170 N.pl3   1  UNL1       -0.1968
     17 H         140.9143  145.5362  160.9786 H       1  UNL1        0.2986
     18 C         138.3294  145.1582  166.0514 C.3     1  UNL1        0.0311
     19 C         138.5099  144.5603  164.6876 C.ar    1  UNL1       -0.0185
     20 C         137.5289  143.5469  164.1771 C.ar    1  UNL1       -0.0040
     21 C         137.7093  142.9490  162.8133 C.ar    1  UNL1        0.0032
     22 C         138.8708  143.3645  161.9600 C.ar    1  UNL1        0.0401
     23 C         139.8518  144.3779  162.4704 C.ar    1  UNL1        0.1354
     24 C         139.6714  144.9758  163.8342 C.ar    1  UNL1        0.0359
@<TRIPOS>BOND
     1    18    19    1
     2    19    20   ar
     3    20    21   ar
     4    21    22   ar
     5    22    23   ar
     6    23    16    1
     7    16     1    1
     8     1     2    2
     9     1     4    1
    10     4     5   ar
    11     5     6   ar
    12     6     7   ar
    13     7     9    1
    14     9    10   ar
    15    10    11   ar
    16    11    12   ar
    17    12    13    1
    18    12    14   ar
    19    14    15   ar
    20     7     8   ar
    21    23    24   ar
    22    24    19   ar
    23     8     4   ar
    24    15     9   ar
    25    16    17    1
    26     2     3    1
@<TRIPOS>MOLECULE
*****
 24 26 0 0 0
SMALL
GASTEIGER

@<TRIPOS>ATOM
      1 C         141.1851  145.4689  162.8381 C.2     1  UNL1        0.3516
      2 N         140.2861  146.4668  162.1702 N.2     1  UNL1       -0.0963
      3 H         140.6152  146.9905  161.4042 H       1  UNL1        0.3634
      4 C         140.6838  144.6711  164.0052 C.ar    1  UNL1        0.2266
      5 C         139.2972  144.7190  164.5754 C.ar    1  UNL1        0.0483
      6 C         139.2374  143.7628  165.7297 C.ar    1  UNL1        0.0409
      7 C         140.5871  143.1240  165.8728 C.ar    1  UNL1        0.1457
      8 O         141.4809  143.6854  164.8070 O.2     1  UNL1       -0.4460
      9 C         140.9747  142.1031  166.9010 C.ar    1  UNL1        0.0346
     10 C         142.3632  142.1001  167.4688 C.ar    1  UNL1        0.0039
     11 C         142.7508  141.0793  168.4970 C.ar    1  UNL1        0.0115
     12 C         141.7501  140.0613  168.9577 C.ar    1  UNL1        0.0577
     13 CL        142.1378  139.0403  169.9860 Cl      1  UNL1       -0.0822
     14 C         140.3616  140.0642  168.3900 C.ar    1  UNL1        0.0115
     15 C         139.9740  141.0851  167.3617 C.ar    1  UNL1        0.0039
     16 N         142.5854  145.2689  162.3389 N.pl3   1  UNL1       -0.1968
     17 H         143.1491  146.0482  162.1290 H       1  UNL1        0.2986
     18 C         145.8956  141.5147  163.7348 C.3     1  UNL1        0.0311
     19 C         144.7818  142.0044  162.8576 C.ar    1  UNL1       -0.0185
     20 C         144.2092  141.1067  161.8010 C.ar    1  UNL1       -0.0040
     21 C         143.0954  141.5964  160.9237 C.ar    1  UNL1        0.0032
     22 C         142.5541  142.9838  161.1030 C.ar    1  UNL1        0.0401
     23 C         143.1267  143.8815  162.1596 C.ar    1  UNL1        0.1354
     24 C         144.2405  143.3918  163.0368 C.ar    1  UNL1        0.0359
@<TRIPOS>BOND
     1    18    19    1
     2    19    20   ar
     3    20    21   ar
     4    21    22   ar
     5    22    23   ar
     6    23    16    1
     7    16     1    1
     8     1     2    2
     9     1     4    1
    10     4     5   ar
    11     5     6   ar
    12     6     7   ar
    13     7     9    1
    14     9    10   ar
    15    10    11   ar
    16    11    12   ar
    17    12    13    1
    18    12    14   ar
    19    14    15   ar
    20     7     8   ar
    21    23    24   ar
    22    24    19   ar
    23     8     4   ar
    24    15     9   ar
    25    16    17    1
    26     2     3    1
@<TRIPOS>MOLECULE
*****
 24 26 0 0 0
SMALL
GASTEIGER

@<TRIPOS>ATOM
      1 C         137.6548  139.9409  162.8283 C.2     1  UNL1        0.3516
      2 N         137.4003  139.0720  161.6324 N.2     1  UNL1       -0.0963
      3 H         136.7635  139.3619  160.9399 H       1  UNL1        0.3634
      4 C         138.6251  139.4992  163.8836 C.ar    1  UNL1        0.2266
      5 C         139.5115  138.2910  163.8159 C.ar    1  UNL1        0.0483
      6 C         140.3136  138.2332  165.0822 C.ar    1  UNL1        0.0409
      7 C         139.9228  139.4056  165.9324 C.ar    1  UNL1        0.1457
      8 O         138.8793  140.1880  165.1915 O.2     1  UNL1       -0.4460
      9 C         140.4781  139.7374  167.2857 C.ar    1  UNL1        0.0346
     10 C         141.9617  139.7433  167.5068 C.ar    1  UNL1        0.0039
     11 C         142.5169  140.0751  168.8601 C.ar    1  UNL1        0.0115
     12 C         141.5887  140.4009  169.9924 C.ar    1  UNL1        0.0577
     13 CL        142.1439  140.7327  171.3458 Cl      1  UNL1       -0.0822
     14 C         140.1050  140.3950  169.7714 C.ar    1  UNL1        0.0115
     15 C         139.5498  140.0632  168.4180 C.ar    1  UNL1        0.0039
     16 N         136.9390  141.2516  162.9690 N.pl3   1  UNL1       -0.1968
     17 H         135.9548  141.2764  162.9784 H       1  UNL1        0.2986
     18 C         140.1107  144.8080  160.8973 C.3     1  UNL1        0.0311
     19 C         139.3085  144.3025  162.0596 C.ar    1  UNL1       -0.0185
     20 C         139.2899  145.0698  163.3483 C.ar    1  UNL1       -0.0040
     21 C         138.4877  144.5644  164.5107 C.ar    1  UNL1        0.0032
     22 C         137.7040  143.2917  164.3842 C.ar    1  UNL1        0.0401
     23 C         137.7226  142.5244  163.0955 C.ar    1  UNL1        0.1354
     24 C         138.5248  143.0298  161.9332 C.ar    1  UNL1        0.0359
@<TRIPOS>BOND
     1    18    19    1
     2    19    20   ar
     3    20    21   ar
     4    21    22   ar
     5    22    23   ar
     6    23    16    1
     7    16     1    1
     8     1     2    2
     9     1     4    1
    10     4     5   ar
    11     5     6   ar
    12     6     7   ar
    13     7     9    1
    14     9    10   ar
    15    10    11   ar
    16    11    12   ar
    17    12    13    1
    18    12    14   ar
    19    14    15   ar
    20     7     8   ar
    21    23    24   ar
    22    24    19   ar
    23     8     4   ar
    24    15     9   ar
    25    16    17    1
    26     2     3    1
@<TRIPOS>MOLECULE
*****
 24 26 0 0 0
SMALL
GASTEIGER

@<TRIPOS>ATOM
      1 C         140.9612  145.1727  162.0552 C.2     1  UNL1        0.3516
      2 N         140.2428  146.4876  162.1256 N.2     1  UNL1       -0.0963
      3 H         140.7516  147.3294  162.0833 H       1  UNL1        0.3634
      4 C         140.1859  143.8902  162.1198 C.ar    1  UNL1        0.2266
      5 C         139.2738  143.3568  161.0550 C.ar    1  UNL1        0.0483
      6 C         138.7108  142.0528  161.5375 C.ar    1  UNL1        0.0409
      7 C         139.2749  141.7804  162.9005 C.ar    1  UNL1        0.1457
      8 O         140.1866  142.9159  163.2603 O.2     1  UNL1       -0.4460
      9 C         138.9794  140.5827  163.7537 C.ar    1  UNL1        0.0346
     10 C         139.2519  139.2035  163.2308 C.ar    1  UNL1        0.0039
     11 C         138.9563  138.0058  164.0840 C.ar    1  UNL1        0.0115
     12 C         138.3881  138.1873  165.4604 C.ar    1  UNL1        0.0577
     13 CL        138.0925  136.9896  166.3137 Cl      1  UNL1       -0.0822
     14 C         138.1155  139.5665  165.9834 C.ar    1  UNL1        0.0115
     15 C         138.4112  140.7642  165.1300 C.ar    1  UNL1        0.0039
     16 N         142.4547  145.1403  161.9203 N.pl3   1  UNL1       -0.1968
     17 H         142.8971  145.6700  161.2183 H       1  UNL1        0.2986
     18 C         145.0012  140.7289  162.9474 C.3     1  UNL1        0.0311
     19 C         144.5474  142.0951  163.3686 C.ar    1  UNL1       -0.0185
     20 C         144.9130  142.6219  164.7246 C.ar    1  UNL1       -0.0040
     21 C         144.4592  143.9881  165.1459 C.ar    1  UNL1        0.0032
     22 C         143.6398  144.8276  164.2112 C.ar    1  UNL1        0.0401
     23 C         143.2742  144.3008  162.8552 C.ar    1  UNL1        0.1354
     24 C         143.7280  142.9346  162.4339 C.ar    1  UNL1        0.0359
@<TRIPOS>BOND
     1    18    19    1
     2    19    20   ar
     3    20    21   ar
     4    21    22   ar
     5    22    23   ar
     6    23    16    1
     7    16     1    1
     8     1     2    2
     9     1     4    1
    10     4     5   ar
    11     5     6   ar
    12     6     7   ar
    13     7     9    1
    14     9    10   ar
    15    10    11   ar
    16    11    12   ar
    17    12    13    1
    18    12    14   ar
    19    14    15   ar
    20     7     8   ar
    21    23    24   ar
    22    24    19   ar
    23     8     4   ar
    24    15     9   ar
    25    16    17    1
    26     2     3    1
@<TRIPOS>MOLECULE
*****
 24 26 0 0 0
SMALL
GASTEIGER

@<TRIPOS>ATOM
      1 C         138.7676  144.4771  163.3510 C.2     1  UNL1        0.3516
      2 N         137.4654  144.6372  162.6239 N.2     1  UNL1       -0.0963
      3 H         137.3290  145.4037  162.0213 H       1  UNL1        0.3634
      4 C         138.9753  143.3091  164.2691 C.ar    1  UNL1        0.2266
      5 C         138.2395  142.0031  164.2145 C.ar    1  UNL1        0.0483
      6 C         138.7647  141.1290  165.3147 C.ar    1  UNL1        0.0409
      7 C         139.8250  141.8949  166.0490 C.ar    1  UNL1        0.1457
      8 O         139.9551  143.2422  165.4028 O.2     1  UNL1       -0.4460
      9 C         140.6162  141.4002  167.2234 C.ar    1  UNL1        0.0346
     10 C         139.9917  140.4506  168.2023 C.ar    1  UNL1        0.0039
     11 C         140.7829  139.9559  169.3766 C.ar    1  UNL1        0.0115
     12 C         142.1988  140.4108  169.5722 C.ar    1  UNL1        0.0577
     13 CL        142.9901  139.9161  170.7466 Cl      1  UNL1       -0.0822
     14 C         142.8235  141.3604  168.5933 C.ar    1  UNL1        0.0115
     15 C         142.0322  141.8551  167.4190 C.ar    1  UNL1        0.0039
     16 N         139.8620  145.4848  163.1600 N.pl3   1  UNL1       -0.1968
     17 H         139.6546  146.4470  163.1825 H       1  UNL1        0.2986
     18 C         143.3447  142.8654  160.3298 C.3     1  UNL1        0.0311
     19 C         143.0138  143.7169  161.5195 C.ar    1  UNL1       -0.0185
     20 C         144.0933  144.1104  162.4838 C.ar    1  UNL1       -0.0040
     21 C         143.7624  144.9619  163.6734 C.ar    1  UNL1        0.0032
     22 C         142.3520  145.4201  163.8988 C.ar    1  UNL1        0.0401
     23 C         141.2725  145.0267  162.9346 C.ar    1  UNL1        0.1354
     24 C         141.6034  144.1751  161.7449 C.ar    1  UNL1        0.0359
@<TRIPOS>BOND
     1    18    19    1
     2    19    20   ar
     3    20    21   ar
     4    21    22   ar
     5    22    23   ar
     6    23    16    1
     7    16     1    1
     8     1     2    2
     9     1     4    1
    10     4     5   ar
    11     5     6   ar
    12     6     7   ar
    13     7     9    1
    14     9    10   ar
    15    10    11   ar
    16    11    12   ar
    17    12    13    1
    18    12    14   ar
    19    14    15   ar
    20     7     8   ar
    21    23    24   ar
    22    24    19   ar
    23     8     4   ar
    24    15     9   ar
    25    16    17    1
    26     2     3    1
@<TRIPOS>MOLECULE
*****
 24 26 0 0 0
SMALL
GASTEIGER

@<TRIPOS>ATOM
      1 C         139.6967  145.2919  162.7788 C.2     1  UNL1        0.3516
      2 N         140.1335  146.6193  162.2338 N.2     1  UNL1       -0.0963
      3 H         139.5221  147.1447  161.6686 H       1  UNL1        0.3634
      4 C         140.6283  144.4914  163.6399 C.ar    1  UNL1        0.2266
      5 C         142.1185  144.4109  163.4886 C.ar    1  UNL1        0.0483
      6 C         142.6445  143.5006  164.5586 C.ar    1  UNL1        0.0409
      7 C         141.4794  143.0185  165.3711 C.ar    1  UNL1        0.1457
      8 O         140.2333  143.6309  164.8033 O.2     1  UNL1       -0.4460
      9 C         141.5482  142.0876  166.5452 C.ar    1  UNL1        0.0346
     10 C         140.4317  141.1190  166.8009 C.ar    1  UNL1        0.0039
     11 C         140.5006  140.1881  167.9750 C.ar    1  UNL1        0.0115
     12 C         141.6859  140.2257  168.8935 C.ar    1  UNL1        0.0577
     13 CL        141.7547  139.2948  170.0677 Cl      1  UNL1       -0.0822
     14 C         142.8024  141.1944  168.6379 C.ar    1  UNL1        0.0115
     15 C         142.7335  142.1253  167.4637 C.ar    1  UNL1        0.0039
     16 N         138.3284  144.7649  162.4629 N.pl3   1  UNL1       -0.1968
     17 H         137.5627  145.3818  162.4133 H       1  UNL1        0.2986
     18 C         138.6783  140.6267  159.3400 C.3     1  UNL1        0.0311
     19 C         138.3015  141.2290  160.6611 C.ar    1  UNL1       -0.0185
     20 C         137.7230  140.3645  161.7417 C.ar    1  UNL1       -0.0040
     21 C         137.3462  140.9669  163.0628 C.ar    1  UNL1        0.0032
     22 C         137.5480  142.4336  163.3032 C.ar    1  UNL1        0.0401
     23 C         138.1265  143.2981  162.2225 C.ar    1  UNL1        0.1354
     24 C         138.5033  142.6958  160.9014 C.ar    1  UNL1        0.0359
@<TRIPOS>BOND
     1    18    19    1
     2    19    20   ar
     3    20    21   ar
     4    21    22   ar
     5    22    23   ar
     6    23    16    1
     7    16     1    1
     8     1     2    2
     9     1     4    1
    10     4     5   ar
    11     5     6   ar
    12     6     7   ar
    13     7     9    1
    14     9    10   ar
    15    10    11   ar
    16    11    12   ar
    17    12    13    1
    18    12    14   ar
    19    14    15   ar
    20     7     8   ar
    21    23    24   ar
    22    24    19   ar
    23     8     4   ar
    24    15     9   ar
    25    16    17    1
    26     2     3    1
@<TRIPOS>MOLECULE
*****
 24 26 0 0 0
SMALL
GASTEIGER

@<TRIPOS>ATOM
      1 C         138.4199  139.2316  163.4730 C.2     1  UNL1        0.3516
      2 N         138.9153  137.9986  162.7770 N.2     1  UNL1       -0.0963
      3 H         138.6991  137.8483  161.8284 H       1  UNL1        0.3634
      4 C         138.7493  139.4605  164.9184 C.ar    1  UNL1        0.2266
      5 C         138.0766  138.8085  166.0899 C.ar    1  UNL1        0.0483
      6 C         138.7208  139.3266  167.3417 C.ar    1  UNL1        0.0409
      7 C         139.7917  140.2987  166.9436 C.ar    1  UNL1        0.1457
      8 O         139.8093  140.3814  165.4460 O.2     1  UNL1       -0.4460
      9 C         140.6876  141.0553  167.8789 C.ar    1  UNL1        0.0346
     10 C         140.2345  142.3625  168.4584 C.ar    1  UNL1        0.0039
     11 C         141.1304  143.1191  169.3937 C.ar    1  UNL1        0.0115
     12 C         142.4795  142.5684  169.7497 C.ar    1  UNL1        0.0577
     13 CL        143.3754  143.3249  170.6851 Cl      1  UNL1       -0.0822
     14 C         142.9326  141.2610  169.1703 C.ar    1  UNL1        0.0115
     15 C         142.0366  140.5046  168.2349 C.ar    1  UNL1        0.0039
     16 N         137.5950  140.2356  162.7237 N.pl3   1  UNL1       -0.1968
     17 H         136.8065  139.9418  162.2126 H       1  UNL1        0.2986
     18 C         140.1593  144.2616  160.6704 C.3     1  UNL1        0.0311
     19 C         139.2537  143.7003  161.7263 C.ar    1  UNL1       -0.0185
     20 C         138.7247  144.5906  162.8114 C.ar    1  UNL1       -0.0040
     21 C         137.8192  144.0292  163.8672 C.ar    1  UNL1        0.0032
     22 C         137.4426  142.5776  163.8380 C.ar    1  UNL1        0.0401
     23 C         137.9716  141.6873  162.7529 C.ar    1  UNL1        0.1354
     24 C         138.8772  142.2486  161.6971 C.ar    1  UNL1        0.0359
@<TRIPOS>BOND
     1    18    19    1
     2    19    20   ar
     3    20    21   ar
     4    21    22   ar
     5    22    23   ar
     6    23    16    1
     7    16     1    1
     8     1     2    2
     9     1     4    1
    10     4     5   ar
    11     5     6   ar
    12     6     7   ar
    13     7     9    1
    14     9    10   ar
    15    10    11   ar
    16    11    12   ar
    17    12    13    1
    18    12    14   ar
    19    14    15   ar
    20     7     8   ar
    21    23    24   ar
    22    24    19   ar
    23     8     4   ar
    24    15     9   ar
    25    16    17    1
    26     2     3    1
