@<TRIPOS>MOLECULE
*****
 17 18 0 0 0
SMALL
GASTEIGER

@<TRIPOS>ATOM
      1 N         143.3159  143.8394  171.1709 N.pl3   1  UNL1       -0.3375
      2 C         142.7214  142.9006  170.1633 C.ar    1  UNL1        0.1567
      3 N         143.4340  141.7679  169.4857 N.ar    1  UNL1       -0.2245
      4 C         142.4630  141.0969  168.5600 C.ar    1  UNL1        0.0894
      5 C         142.6046  139.9249  167.6346 C.ar    1  UNL1        0.0228
      6 C         141.4335  139.4708  166.8148 C.ar    1  UNL1        0.0388
      7 C         140.1207  140.1888  166.9204 C.ar    1  UNL1        0.1474
      8 C         139.9791  141.3608  167.8457 C.ar    1  UNL1        0.0452
      9 C         141.1503  141.8148  168.6655 C.ar    1  UNL1        0.0527
     10 S         141.3100  142.9296  169.6564 S.2     1  UNL1       -0.0519
     11 H         144.2571  143.7394  171.4416 H       1  UNL1        0.1442
     12 H         142.7648  144.5556  171.5616 H       1  UNL1        0.1442
     13 O         138.9495  139.7347  166.1005 O.3     1  UNL1       -0.4044
     14 C         138.3166  138.4019  166.3706 C.3     1  UNL1        0.5753
     15 F         137.6836  137.0690  166.6407 F       1  UNL1       -0.1328
     16 F         138.9842  137.8378  165.1516 F       1  UNL1       -0.1328
     17 F         137.6489  138.9660  167.5896 F       1  UNL1       -0.1328
@<TRIPOS>BOND
     1     1     2    1
     2     2     3   ar
     3     3     4   ar
     4     4     5   ar
     5     5     6   ar
     6     6     7   ar
     7     7    13    1
     8    13    14    1
     9    14    15    1
    10    14    16    1
    11    14    17    1
    12     7     8   ar
    13     8     9   ar
    14     9    10   ar
    15    10     2   ar
    16     9     4   ar
    17     1    11    1
    18     1    12    1
@<TRIPOS>MOLECULE
*****
 17 18 0 0 0
SMALL
GASTEIGER

@<TRIPOS>ATOM
      1 N         144.6740  142.9401  170.2569 N.pl3   1  UNL1       -0.3375
      2 C         143.4111  142.2887  169.7765 C.ar    1  UNL1        0.1567
      3 N         142.3044  141.7650  170.6429 N.ar    1  UNL1       -0.2245
      4 C         141.2425  141.1993  169.7472 C.ar    1  UNL1        0.0894
      5 C         139.9236  140.5482  170.0412 C.ar    1  UNL1        0.0228
      6 C         139.0552  140.0711  168.9151 C.ar    1  UNL1        0.0388
      7 C         139.5057  140.2451  167.4950 C.ar    1  UNL1        0.1474
      8 C         140.8246  140.8962  167.2010 C.ar    1  UNL1        0.0452
      9 C         141.6930  141.3733  168.3271 C.ar    1  UNL1        0.0527
     10 S         143.0333  142.0466  168.3452 S.2     1  UNL1       -0.0519
     11 H         144.8324  143.0550  171.2217 H       1  UNL1        0.1442
     12 H         145.3445  143.2528  169.6073 H       1  UNL1        0.1442
     13 O         138.6372  139.7679  166.3688 O.3     1  UNL1       -0.4044
     14 C         138.4273  138.2983  166.1544 C.3     1  UNL1        0.5753
     15 F         138.2173  136.8285  165.9400 F       1  UNL1       -0.1328
     16 F         137.1534  138.3651  166.9435 F       1  UNL1       -0.1328
     17 F         139.7011  138.2314  165.3653 F       1  UNL1       -0.1328
@<TRIPOS>BOND
     1     1     2    1
     2     2     3   ar
     3     3     4   ar
     4     4     5   ar
     5     5     6   ar
     6     6     7   ar
     7     7    13    1
     8    13    14    1
     9    14    15    1
    10    14    16    1
    11    14    17    1
    12     7     8   ar
    13     8     9   ar
    14     9    10   ar
    15    10     2   ar
    16     9     4   ar
    17     1    11    1
    18     1    12    1
@<TRIPOS>MOLECULE
*****
 17 18 0 0 0
SMALL
GASTEIGER

@<TRIPOS>ATOM
      1 N         139.8295  146.5365  162.0956 N.pl3   1  UNL1       -0.3375
      2 C         139.4621  145.2182  162.7098 C.ar    1  UNL1        0.1567
      3 N         138.4449  144.2516  162.1799 N.ar    1  UNL1       -0.2245
      4 C         138.4015  143.0711  163.1043 C.ar    1  UNL1        0.0894
      5 C         137.5881  141.8110  163.0856 C.ar    1  UNL1        0.0228
      6 C         137.7652  140.7879  164.1682 C.ar    1  UNL1        0.0388
      7 C         138.7557  141.0250  165.2694 C.ar    1  UNL1        0.1474
      8 C         139.5690  142.2851  165.2882 C.ar    1  UNL1        0.0452
      9 C         139.3920  143.3082  164.2056 C.ar    1  UNL1        0.0527
     10 S         140.0474  144.6352  163.9617 S.2     1  UNL1       -0.0519
     11 H         139.3871  146.8343  161.2680 H       1  UNL1        0.1442
     12 H         140.5130  147.1039  162.5199 H       1  UNL1        0.1442
     13 O         138.9327  140.0019  166.3520 O.3     1  UNL1       -0.4044
     14 C         138.5748  138.5681  166.0947 C.3     1  UNL1        0.5753
     15 F         138.2170  137.1343  165.8374 F       1  UNL1       -0.1328
     16 F         139.8389  138.3941  165.3062 F       1  UNL1       -0.1328
     17 F         137.3108  138.7421  166.8833 F       1  UNL1       -0.1328
@<TRIPOS>BOND
     1     1     2    1
     2     2     3   ar
     3     3     4   ar
     4     4     5   ar
     5     5     6   ar
     6     6     7   ar
     7     7    13    1
     8    13    14    1
     9    14    15    1
    10    14    16    1
    11    14    17    1
    12     7     8   ar
    13     8     9   ar
    14     9    10   ar
    15    10     2   ar
    16     9     4   ar
    17     1    11    1
    18     1    12    1
@<TRIPOS>MOLECULE
*****
 17 18 0 0 0
SMALL
GASTEIGER

@<TRIPOS>ATOM
      1 N         137.6882  143.5983  162.0169 N.pl3   1  UNL1       -0.3375
      2 C         138.1375  142.8195  163.2175 C.ar    1  UNL1        0.1567
      3 N         137.6785  141.4431  163.5979 N.ar    1  UNL1       -0.2245
      4 C         138.3820  141.0532  164.8641 C.ar    1  UNL1        0.0894
      5 C         138.3242  139.8110  165.7028 C.ar    1  UNL1        0.0228
      6 C         139.1601  139.7043  166.9436 C.ar    1  UNL1        0.0388
      7 C         140.0540  140.8398  167.3457 C.ar    1  UNL1        0.1474
      8 C         140.1118  142.0820  166.5070 C.ar    1  UNL1        0.0452
      9 C         139.2758  142.1887  165.2662 C.ar    1  UNL1        0.0527
     10 S         139.1247  143.2803  164.2486 S.2     1  UNL1       -0.0519
     11 H         137.0328  143.2085  161.3943 H       1  UNL1        0.1442
     12 H         138.0489  144.4993  161.8514 H       1  UNL1        0.1442
     13 O         140.8900  140.7330  168.5866 O.3     1  UNL1       -0.4044
     14 C         140.2925  140.1850  169.8486 C.3     1  UNL1        0.5753
     15 F         139.6950  139.6369  171.1107 F       1  UNL1       -0.1328
     16 F         139.2158  141.2277  169.7917 F       1  UNL1       -0.1328
     17 F         141.3693  139.1422  169.9055 F       1  UNL1       -0.1328
@<TRIPOS>BOND
     1     1     2    1
     2     2     3   ar
     3     3     4   ar
     4     4     5   ar
     5     5     6   ar
     6     6     7   ar
     7     7    13    1
     8    13    14    1
     9    14    15    1
    10    14    16    1
    11    14    17    1
    12     7     8   ar
    13     8     9   ar
    14     9    10   ar
    15    10     2   ar
    16     9     4   ar
    17     1    11    1
    18     1    12    1
@<TRIPOS>MOLECULE
*****
 17 18 0 0 0
SMALL
GASTEIGER

@<TRIPOS>ATOM
      1 N         137.2130  137.3487  167.1642 N.pl3   1  UNL1       -0.3375
      2 C         138.0173  138.6029  166.9914 C.ar    1  UNL1        0.1567
      3 N         138.8158  139.2922  168.0578 N.ar    1  UNL1       -0.2245
      4 C         139.4564  140.5034  167.4473 C.ar    1  UNL1        0.0894
      5 C         140.3543  141.5600  168.0195 C.ar    1  UNL1        0.0228
      6 C         140.8496  142.6757  167.1479 C.ar    1  UNL1        0.0388
      7 C         140.4471  142.7349  165.7042 C.ar    1  UNL1        0.1474
      8 C         139.5492  141.6784  165.1320 C.ar    1  UNL1        0.0452
      9 C         139.0539  140.5626  166.0035 C.ar    1  UNL1        0.0527
     10 S         138.1645  139.3880  165.7218 S.2     1  UNL1       -0.0519
     11 H         137.1778  136.9034  168.0416 H       1  UNL1        0.1442
     12 H         136.7202  136.9707  166.4003 H       1  UNL1        0.1442
     13 O         140.9424  143.8508  164.8326 O.3     1  UNL1       -0.4044
     14 C         139.9794  144.6160  163.9741 C.3     1  UNL1        0.5753
     15 F         139.0164  145.3812  163.1156 F       1  UNL1       -0.1328
     16 F         139.2876  145.1249  165.2038 F       1  UNL1       -0.1328
     17 F         140.6713  144.1070  162.7444 F       1  UNL1       -0.1328
@<TRIPOS>BOND
     1     1     2    1
     2     2     3   ar
     3     3     4   ar
     4     4     5   ar
     5     5     6   ar
     6     6     7   ar
     7     7    13    1
     8    13    14    1
     9    14    15    1
    10    14    16    1
    11    14    17    1
    12     7     8   ar
    13     8     9   ar
    14     9    10   ar
    15    10     2   ar
    16     9     4   ar
    17     1    11    1
    18     1    12    1
@<TRIPOS>MOLECULE
*****
 17 18 0 0 0
SMALL
GASTEIGER

@<TRIPOS>ATOM
      1 N         142.2863  137.3731  161.8897 N.pl3   1  UNL1       -0.3375
      2 C         141.5459  137.8710  163.0954 C.ar    1  UNL1        0.1567
      3 N         140.1671  137.4570  163.5167 N.ar    1  UNL1       -0.2245
      4 C         139.8234  138.2005  164.7733 C.ar    1  UNL1        0.0894
      5 C         138.5990  138.1950  165.6398 C.ar    1  UNL1        0.0228
      6 C         138.5411  139.0630  166.8617 C.ar    1  UNL1        0.0388
      7 C         139.7075  139.9366  167.2171 C.ar    1  UNL1        0.1474
      8 C         140.9319  139.9421  166.3506 C.ar    1  UNL1        0.0452
      9 C         140.9898  139.0741  165.1287 C.ar    1  UNL1        0.0527
     10 S         142.0544  138.8705  164.0917 S.2     1  UNL1       -0.0519
     11 H         141.8663  136.7131  161.2920 H       1  UNL1        0.1442
     12 H         143.1922  137.7062  161.6960 H       1  UNL1        0.1442
     13 O         139.6495  140.8046  168.4391 O.3     1  UNL1       -0.4044
     14 C         139.6825  140.1822  169.8034 C.3     1  UNL1        0.5753
     15 F         139.7156  139.5598  171.1679 F       1  UNL1       -0.1328
     16 F         141.0067  139.5539  169.4847 F       1  UNL1       -0.1328
     17 F         138.3583  140.8106  170.1221 F       1  UNL1       -0.1328
@<TRIPOS>BOND
     1     1     2    1
     2     2     3   ar
     3     3     4   ar
     4     4     5   ar
     5     5     6   ar
     6     6     7   ar
     7     7    13    1
     8    13    14    1
     9    14    15    1
    10    14    16    1
    11    14    17    1
    12     7     8   ar
    13     8     9   ar
    14     9    10   ar
    15    10     2   ar
    16     9     4   ar
    17     1    11    1
    18     1    12    1
@<TRIPOS>MOLECULE
*****
 17 18 0 0 0
SMALL
GASTEIGER

@<TRIPOS>ATOM
      1 N         139.2421  146.5480  161.4642 N.pl3   1  UNL1       -0.3375
      2 C         139.1646  145.3225  162.3256 C.ar    1  UNL1        0.1567
      3 N         138.0165  144.3591  162.3870 N.ar    1  UNL1       -0.2245
      4 C         138.3639  143.2863  163.3762 C.ar    1  UNL1        0.0894
      5 C         137.6154  142.0748  163.8471 C.ar    1  UNL1        0.0228
      6 C         138.2297  141.1637  164.8681 C.ar    1  UNL1        0.0388
      7 C         139.5925  141.4640  165.4181 C.ar    1  UNL1        0.1474
      8 C         140.3410  142.6756  164.9471 C.ar    1  UNL1        0.0452
      9 C         139.7267  143.5867  163.9262 C.ar    1  UNL1        0.0527
     10 S         140.2216  144.8451  163.2768 S.2     1  UNL1       -0.0519
     11 H         138.4929  146.7795  160.8689 H       1  UNL1        0.1442
     12 H         140.0422  147.1209  161.4941 H       1  UNL1        0.1442
     13 O         140.2068  140.5528  166.4391 O.3     1  UNL1       -0.4044
     14 C         139.5212  140.3299  167.7545 C.3     1  UNL1        0.5753
     15 F         138.8357  140.1071  169.0700 F       1  UNL1       -0.1328
     16 F         140.0852  141.6218  168.2673 F       1  UNL1       -0.1328
     17 F         138.9573  139.0381  167.2417 F       1  UNL1       -0.1328
@<TRIPOS>BOND
     1     1     2    1
     2     2     3   ar
     3     3     4   ar
     4     4     5   ar
     5     5     6   ar
     6     6     7   ar
     7     7    13    1
     8    13    14    1
     9    14    15    1
    10    14    16    1
    11    14    17    1
    12     7     8   ar
    13     8     9   ar
    14     9    10   ar
    15    10     2   ar
    16     9     4   ar
    17     1    11    1
    18     1    12    1
@<TRIPOS>MOLECULE
*****
 17 18 0 0 0
SMALL
GASTEIGER

@<TRIPOS>ATOM
      1 N         143.8734  139.5288  171.4714 N.pl3   1  UNL1       -0.3375
      2 C         142.9833  140.0684  170.3914 C.ar    1  UNL1        0.1567
      3 N         142.5133  141.4871  170.2630 N.ar    1  UNL1       -0.2245
      4 C         141.6464  141.5796  169.0423 C.ar    1  UNL1        0.0894
      5 C         140.9084  142.7276  168.4200 C.ar    1  UNL1        0.0228
      6 C         140.1047  142.5141  167.1717 C.ar    1  UNL1        0.0388
      7 C         140.0389  141.1526  166.5457 C.ar    1  UNL1        0.1474
      8 C         140.7768  140.0046  167.1680 C.ar    1  UNL1        0.0452
      9 C         141.5806  140.2180  168.4163 C.ar    1  UNL1        0.0527
     10 S         142.4068  139.2841  169.2501 S.2     1  UNL1       -0.0519
     11 H         144.2029  140.1256  172.1817 H       1  UNL1        0.1442
     12 H         144.1282  138.5778  171.4700 H       1  UNL1        0.1442
     13 O         139.2350  140.9392  165.2973 O.3     1  UNL1       -0.4044
     14 C         138.8272  139.5527  164.8958 C.3     1  UNL1        0.5753
     15 F         138.4193  138.1661  164.4942 F       1  UNL1       -0.1328
     16 F         139.9537  139.5078  163.9065 F       1  UNL1       -0.1328
     17 F         137.7006  139.5976  165.8851 F       1  UNL1       -0.1328
@<TRIPOS>BOND
     1     1     2    1
     2     2     3   ar
     3     3     4   ar
     4     4     5   ar
     5     5     6   ar
     6     6     7   ar
     7     7    13    1
     8    13    14    1
     9    14    15    1
    10    14    16    1
    11    14    17    1
    12     7     8   ar
    13     8     9   ar
    14     9    10   ar
    15    10     2   ar
    16     9     4   ar
    17     1    11    1
    18     1    12    1
@<TRIPOS>MOLECULE
*****
 17 18 0 0 0
SMALL
GASTEIGER

@<TRIPOS>ATOM
      1 N         136.9094  137.5049  167.4375 N.pl3   1  UNL1       -0.3375
      2 C         137.9549  138.5415  167.1502 C.ar    1  UNL1        0.1567
      3 N         138.5835  139.4616  168.1543 N.ar    1  UNL1       -0.2245
      4 C         139.5725  140.3287  167.4331 C.ar    1  UNL1        0.0894
      5 C         140.4866  141.4184  167.9092 C.ar    1  UNL1        0.0228
      6 C         141.3832  142.1240  166.9355 C.ar    1  UNL1        0.0388
      7 C         141.3658  141.7398  165.4857 C.ar    1  UNL1        0.1474
      8 C         140.4517  140.6500  165.0095 C.ar    1  UNL1        0.0452
      9 C         139.5550  139.9445  165.9832 C.ar    1  UNL1        0.0527
     10 S         138.5553  138.8399  165.8084 S.2     1  UNL1       -0.0519
     11 H         136.5762  137.3831  168.3559 H       1  UNL1        0.1442
     12 H         136.5564  136.9464  166.7077 H       1  UNL1        0.1442
     13 O         142.2625  142.4454  164.5119 O.3     1  UNL1       -0.4044
     14 C         143.5985  142.9598  164.9596 C.3     1  UNL1        0.5753
     15 F         144.9345  143.4743  165.4074 F       1  UNL1       -0.1328
     16 F         143.1536  144.3636  164.6744 F       1  UNL1       -0.1328
     17 F         144.0434  141.5560  165.2449 F       1  UNL1       -0.1328
@<TRIPOS>BOND
     1     1     2    1
     2     2     3   ar
     3     3     4   ar
     4     4     5   ar
     5     5     6   ar
     6     6     7   ar
     7     7    13    1
     8    13    14    1
     9    14    15    1
    10    14    16    1
    11    14    17    1
    12     7     8   ar
    13     8     9   ar
    14     9    10   ar
    15    10     2   ar
    16     9     4   ar
    17     1    11    1
    18     1    12    1
