@<TRIPOS>MOLECULE
*****
 49 55 0 0 0
SMALL
GASTEIGER

@<TRIPOS>ATOM
      1 C         140.8538  141.1738  161.1451 C.3     1  UNL1        0.0236
      2 C         140.2533  140.0475  160.3572 C.3     1  UNL1        0.0257
      3 C         141.0264  139.4219  159.2343 C.3     1  UNL1        0.0940
      4 N         142.4001  139.9227  158.8992 N.am    1  UNL1       -0.2760
      5 C         143.1733  139.2972  157.7763 C.2     1  UNL1        0.2512
      6 O         144.5469  139.7980  157.4413 O.2     1  UNL1       -0.2698
      7 C         143.0006  141.0491  159.6871 C.3     1  UNL1        0.0940
      8 C         142.2275  141.6746  160.8100 C.3     1  UNL1        0.0257
      9 C         142.5727  138.1709  156.9885 C.ar    1  UNL1        0.0824
     10 C         142.8951  136.7502  157.3458 C.ar    1  UNL1        0.0249
     11 C         142.2945  135.6239  156.5579 C.ar    1  UNL1        0.0921
     12 C         141.3715  135.9183  155.4127 C.ar    1  UNL1        0.1568
     13 F         140.7709  134.7920  154.6249 F       1  UNL1       -0.2027
     14 C         141.0491  137.3390  155.0554 C.ar    1  UNL1        0.0607
     15 C         141.6497  138.4653  155.8433 C.ar    1  UNL1        0.1468
     16 F         141.3273  139.8860  155.4860 F       1  UNL1       -0.2039
     17 N         142.6169  134.2032  156.9152 N.pl3   1  UNL1       -0.2165
     18 H         142.5712  133.9091  157.8536 H       1  UNL1        0.1734
     19 S         143.0089  133.2306  155.8426 S.O2    1  UNL1        0.0559
     20 C         143.4010  132.2579  154.7701 C.3     1  UNL1        0.1996
     21 O         141.8543  132.3501  156.2190 O.2     1  UNL1       -0.1544
     22 O         144.1635  134.1110  155.4662 O.2     1  UNL1       -0.1544
     23 C         140.9942  142.2569  162.1734 C.ar    1  UNL1       -0.0204
     24 C         141.2775  141.9017  163.6029 C.ar    1  UNL1       -0.0041
     25 C         141.4180  142.9848  164.6312 C.ar    1  UNL1        0.0020
     26 C         141.2750  144.4231  164.2298 C.ar    1  UNL1        0.0296
     27 C         140.9916  144.7782  162.8002 C.ar    1  UNL1        0.1398
     28 F         140.8487  146.2164  162.3989 F       1  UNL1       -0.2042
     29 C         140.8512  143.6950  161.7720 C.ar    1  UNL1        0.0254
     30 C         139.5289  141.0492  161.8372 C.3     1  UNL1        0.0215
     31 C         138.2675  141.4193  161.1148 C.3     1  UNL1        0.0723
     32 C         138.2373  141.3584  160.9733 C.3     1  UNL1        0.0893
     33 C         138.7297  142.6534  160.3982 C.3     1  UNL1        0.0386
     34 C         138.7482  142.8551  158.9119 C.3     1  UNL1        0.0594
     35 C         138.5933  142.6208  157.4384 C.3     1  UNL1        0.0174
     36 C         138.0354  141.2420  157.2444 C.3     1  UNL1        0.0174
     37 C         137.8454  140.6241  158.5980 C.3     1  UNL1        0.0594
     38 C         137.7634  140.2653  160.0621 C.3     1  UNL1        0.0386
     39 N         138.2859  141.6210  159.6286 N.3     1  UNL1       -0.2751
     40 C         137.6317  143.5396  162.8632 C.3     1  UNL1        0.0718
     41 C         137.9219  142.2073  163.4883 C.ar    1  UNL1        0.1207
     42 N         138.0136  141.5689  164.8425 N.ar    1  UNL1       -0.2309
     43 C         138.3673  140.1238  164.6508 C.ar    1  UNL1        0.0983
     44 C         138.5903  139.0070  165.6271 C.ar    1  UNL1        0.0206
     45 C         138.9400  137.6355  165.1305 C.ar    1  UNL1        0.0016
     46 C         139.0668  137.3808  163.6577 C.ar    1  UNL1        0.0016
     47 C         138.8439  138.4976  162.6815 C.ar    1  UNL1        0.0188
     48 C         138.4941  139.8691  163.1781 C.ar    1  UNL1        0.0785
     49 N         138.2188  141.1567  162.4596 N.ar    1  UNL1       -0.3167
@<TRIPOS>BOND
     1    40    41    1
     2    41    42   ar
     3    42    43   ar
     4    43    44   ar
     5    44    45   ar
     6    45    46   ar
     7    46    47   ar
     8    47    48   ar
     9    48    49   ar
    10    49    32    1
    11    32    33    1
    12    33    34    1
    13    34    35    1
    14    35    36    1
    15    36    37    1
    16    37    38    1
    17    37    39    1
    18    39    31    1
    19    31    30    1
    20    30     1    1
    21     1    23    1
    22    23    24   ar
    23    24    25   ar
    24    25    26   ar
    25    26    27   ar
    26    27    28    1
    27    27    29   ar
    28     1     2    1
    29     2     3    1
    30     3     4    1
    31     4     5   am
    32     5     6    2
    33     5     9    1
    34     9    10   ar
    35    10    11   ar
    36    11    17    1
    37    17    19    1
    38    19    20    1
    39    19    21    2
    40    19    22    2
    41    11    12   ar
    42    12    13    1
    43    12    14   ar
    44    14    15   ar
    45    15    16    1
    46     4     7    1
    47     7     8    1
    48    49    41   ar
    49    38    32    1
    50     8     1    1
    51    48    43   ar
    52    39    34    1
    53    29    23   ar
    54    15     9   ar
    55    17    18    1
@<TRIPOS>MOLECULE
*****
 49 55 0 0 0
SMALL
GASTEIGER

@<TRIPOS>ATOM
      1 C         141.6985  141.7963  164.9572 C.3     1  UNL1        0.0236
      2 C         141.7568  140.8546  163.7911 C.3     1  UNL1        0.0257
      3 C         141.8722  141.3942  162.3963 C.3     1  UNL1        0.0940
      4 N         141.9293  142.8756  162.1676 N.am    1  UNL1       -0.2760
      5 C         142.0448  143.4152  160.7728 C.2     1  UNL1        0.2512
      6 O         142.1019  144.8966  160.5441 O.2     1  UNL1       -0.2698
      7 C         141.8710  143.8173  163.3337 C.3     1  UNL1        0.0940
      8 C         141.7556  143.2777  164.7285 C.3     1  UNL1        0.0257
      9 C         142.1031  142.4735  159.6067 C.ar    1  UNL1        0.0824
     10 C         143.4216  141.9178  159.1566 C.ar    1  UNL1        0.0249
     11 C         143.4798  140.9761  157.9905 C.ar    1  UNL1        0.0921
     12 C         142.2195  140.5899  157.2746 C.ar    1  UNL1        0.1568
     13 F         142.2778  139.6481  156.1086 F       1  UNL1       -0.2027
     14 C         140.9009  141.1455  157.7248 C.ar    1  UNL1        0.0607
     15 C         140.8427  142.0873  158.8909 C.ar    1  UNL1        0.1468
     16 F         139.5242  142.6429  159.3411 F       1  UNL1       -0.2039
     17 N         144.7984  140.4204  157.5403 N.pl3   1  UNL1       -0.2165
     18 H         145.3278  139.8553  158.1482 H       1  UNL1        0.1734
     19 S         145.3104  140.7259  156.1639 S.O2    1  UNL1        0.0559
     20 C         145.8224  141.0315  154.7874 C.3     1  UNL1        0.1996
     21 O         145.3525  139.2589  155.8539 O.2     1  UNL1       -0.1544
     22 O         145.2683  142.1929  156.4738 O.2     1  UNL1       -0.1544
     23 C         141.6097  142.2822  166.3736 C.ar    1  UNL1       -0.0204
     24 C         140.3412  142.9071  166.8739 C.ar    1  UNL1       -0.0041
     25 C         140.2523  143.3931  168.2903 C.ar    1  UNL1        0.0020
     26 C         141.4320  143.2539  169.2063 C.ar    1  UNL1        0.0296
     27 C         142.7005  142.6290  168.7059 C.ar    1  UNL1        0.1398
     28 F         143.8801  142.4899  169.6219 F       1  UNL1       -0.2042
     29 C         142.7893  142.1431  167.2895 C.ar    1  UNL1        0.0254
     30 C         141.6106  140.4837  165.6778 C.3     1  UNL1        0.0215
     31 C         140.3715  139.6462  165.5623 C.3     1  UNL1        0.0723
     32 C         140.3153  139.6104  165.4201 C.3     1  UNL1        0.0893
     33 C         139.3125  140.7066  165.6276 C.3     1  UNL1        0.0386
     34 C         138.3000  141.0081  164.5628 C.3     1  UNL1        0.0594
     35 C         137.5141  140.9576  163.2862 C.3     1  UNL1        0.0174
     36 C         138.0873  139.8661  162.4318 C.3     1  UNL1        0.0174
     37 C         139.2275  139.2419  163.1805 C.3     1  UNL1        0.0594
     38 C         140.3054  138.8159  164.1479 C.3     1  UNL1        0.0386
     39 N         139.3589  139.9477  164.4976 N.3     1  UNL1       -0.2751
     40 C         142.9812  138.5084  164.8082 C.3     1  UNL1        0.0718
     41 C         142.7017  138.7493  166.2621 C.ar    1  UNL1        0.1207
     42 N         143.3672  138.6085  167.5989 N.ar    1  UNL1       -0.2309
     43 C         142.4048  139.0810  168.6480 C.ar    1  UNL1        0.0983
     44 C         142.5133  139.1731  170.1412 C.ar    1  UNL1        0.0206
     45 C         141.3614  139.6980  170.9459 C.ar    1  UNL1        0.0016
     46 C         140.1010  140.1308  170.2573 C.ar    1  UNL1        0.0016
     47 C         139.9925  140.0387  168.7641 C.ar    1  UNL1        0.0188
     48 C         141.1444  139.5138  167.9595 C.ar    1  UNL1        0.0785
     49 N         141.3279  139.3088  166.4849 N.ar    1  UNL1       -0.3167
@<TRIPOS>BOND
     1    40    41    1
     2    41    42   ar
     3    42    43   ar
     4    43    44   ar
     5    44    45   ar
     6    45    46   ar
     7    46    47   ar
     8    47    48   ar
     9    48    49   ar
    10    49    32    1
    11    32    33    1
    12    33    34    1
    13    34    35    1
    14    35    36    1
    15    36    37    1
    16    37    38    1
    17    37    39    1
    18    39    31    1
    19    31    30    1
    20    30     1    1
    21     1    23    1
    22    23    24   ar
    23    24    25   ar
    24    25    26   ar
    25    26    27   ar
    26    27    28    1
    27    27    29   ar
    28     1     2    1
    29     2     3    1
    30     3     4    1
    31     4     5   am
    32     5     6    2
    33     5     9    1
    34     9    10   ar
    35    10    11   ar
    36    11    17    1
    37    17    19    1
    38    19    20    1
    39    19    21    2
    40    19    22    2
    41    11    12   ar
    42    12    13    1
    43    12    14   ar
    44    14    15   ar
    45    15    16    1
    46     4     7    1
    47     7     8    1
    48    49    41   ar
    49    38    32    1
    50     8     1    1
    51    48    43   ar
    52    39    34    1
    53    29    23   ar
    54    15     9   ar
    55    17    18    1
@<TRIPOS>MOLECULE
*****
 49 55 0 0 0
SMALL
GASTEIGER

@<TRIPOS>ATOM
      1 C         140.8524  141.7665  161.7313 C.3     1  UNL1        0.0236
      2 C         141.2565  142.2550  163.0908 C.3     1  UNL1        0.0257
      3 C         141.2420  141.3157  164.2602 C.3     1  UNL1        0.0940
      4 N         140.8235  139.8879  164.0701 N.am    1  UNL1       -0.2760
      5 C         140.8091  138.9486  165.2395 C.2     1  UNL1        0.2512
      6 O         140.3905  137.5207  165.0495 O.2     1  UNL1       -0.2698
      7 C         140.4194  139.3994  162.7107 C.3     1  UNL1        0.0940
      8 C         140.4338  140.3386  161.5413 C.3     1  UNL1        0.0257
      9 C         141.2132  139.4372  166.5989 C.ar    1  UNL1        0.0824
     10 C         140.2696  140.2808  167.4039 C.ar    1  UNL1        0.0249
     11 C         140.6738  140.7693  168.7633 C.ar    1  UNL1        0.0921
     12 C         142.0216  140.4142  169.3177 C.ar    1  UNL1        0.1568
     13 F         142.4257  140.9028  170.6771 F       1  UNL1       -0.2027
     14 C         142.9652  139.5706  168.5128 C.ar    1  UNL1        0.0607
     15 C         142.5610  139.0821  167.1534 C.ar    1  UNL1        0.1468
     16 F         143.5046  138.2384  166.3485 F       1  UNL1       -0.2039
     17 N         139.7302  141.6129  169.5682 N.pl3   1  UNL1       -0.2165
     18 H         138.8746  141.2365  169.8771 H       1  UNL1        0.1734
     19 S         140.0903  143.0302  169.9025 S.O2    1  UNL1        0.0559
     20 C         140.4503  144.4475  170.2367 C.3     1  UNL1        0.1996
     21 O         139.8829  142.7393  171.3593 O.2     1  UNL1       -0.1544
     22 O         140.2976  143.3212  168.4457 O.2     1  UNL1       -0.1544
     23 C         140.5581  141.7749  160.2604 C.ar    1  UNL1       -0.0204
     24 C         141.5214  141.1439  159.2993 C.ar    1  UNL1       -0.0041
     25 C         141.2271  141.1522  157.8284 C.ar    1  UNL1        0.0020
     26 C         139.9695  141.7915  157.3188 C.ar    1  UNL1        0.0296
     27 C         139.0062  142.4226  158.2800 C.ar    1  UNL1        0.1398
     28 F         137.7487  143.0618  157.7704 F       1  UNL1       -0.2042
     29 C         139.3006  142.4142  159.7509 C.ar    1  UNL1        0.0254
     30 C         141.1687  143.1972  161.4105 C.3     1  UNL1        0.0215
     31 C         142.5775  143.6986  161.5290 C.3     1  UNL1        0.0723
     32 C         142.6618  143.6785  161.6598 C.3     1  UNL1        0.0893
     33 C         143.2688  142.4817  160.9893 C.3     1  UNL1        0.0386
     34 C         144.2990  141.6616  161.7078 C.3     1  UNL1        0.0594
     35 C         145.2459  141.1623  162.7584 C.3     1  UNL1        0.0174
     36 C         145.1398  142.0706  163.9474 C.3     1  UNL1        0.0174
     37 C         144.1273  143.1313  163.6316 C.3     1  UNL1        0.0594
     38 C         143.0851  144.0549  163.0487 C.3     1  UNL1        0.0386
     39 N         143.6076  142.8785  162.2474 N.3     1  UNL1       -0.2751
     40 C         140.4217  144.9912  163.0577 C.3     1  UNL1        0.0718
     41 C         140.4645  145.1981  161.5726 C.ar    1  UNL1        0.1207
     42 N         139.6993  145.8950  160.4869 N.ar    1  UNL1       -0.2309
     43 C         140.3936  145.6263  159.1847 C.ar    1  UNL1        0.0983
     44 C         140.0927  146.0560  157.7795 C.ar    1  UNL1        0.0206
     45 C         140.9860  145.6227  156.6551 C.ar    1  UNL1        0.0016
     46 C         142.1802  144.7597  156.9360 C.ar    1  UNL1        0.0016
     47 C         142.4812  144.3300  158.3412 C.ar    1  UNL1        0.0188
     48 C         141.5879  144.7633  159.4656 C.ar    1  UNL1        0.0785
     49 N         141.6317  144.4986  160.9414 N.ar    1  UNL1       -0.3167
@<TRIPOS>BOND
     1    40    41    1
     2    41    42   ar
     3    42    43   ar
     4    43    44   ar
     5    44    45   ar
     6    45    46   ar
     7    46    47   ar
     8    47    48   ar
     9    48    49   ar
    10    49    32    1
    11    32    33    1
    12    33    34    1
    13    34    35    1
    14    35    36    1
    15    36    37    1
    16    37    38    1
    17    37    39    1
    18    39    31    1
    19    31    30    1
    20    30     1    1
    21     1    23    1
    22    23    24   ar
    23    24    25   ar
    24    25    26   ar
    25    26    27   ar
    26    27    28    1
    27    27    29   ar
    28     1     2    1
    29     2     3    1
    30     3     4    1
    31     4     5   am
    32     5     6    2
    33     5     9    1
    34     9    10   ar
    35    10    11   ar
    36    11    17    1
    37    17    19    1
    38    19    20    1
    39    19    21    2
    40    19    22    2
    41    11    12   ar
    42    12    13    1
    43    12    14   ar
    44    14    15   ar
    45    15    16    1
    46     4     7    1
    47     7     8    1
    48    49    41   ar
    49    38    32    1
    50     8     1    1
    51    48    43   ar
    52    39    34    1
    53    29    23   ar
    54    15     9   ar
    55    17    18    1
@<TRIPOS>MOLECULE
*****
 49 55 0 0 0
SMALL
GASTEIGER

@<TRIPOS>ATOM
      1 C         141.6789  141.7868  164.9351 C.3     1  UNL1        0.0236
      2 C         141.7107  140.8505  163.7637 C.3     1  UNL1        0.0257
      3 C         141.7918  141.3966  162.3690 C.3     1  UNL1        0.0940
      4 N         141.8411  142.8791  162.1457 N.am    1  UNL1       -0.2760
      5 C         141.9222  143.4253  160.7511 C.2     1  UNL1        0.2512
      6 O         141.9715  144.9078  160.5278 O.2     1  UNL1       -0.2698
      7 C         141.8093  143.8154  163.3172 C.3     1  UNL1        0.0940
      8 C         141.7282  143.2693  164.7118 C.3     1  UNL1        0.0257
      9 C         141.9540  142.4889  159.5797 C.ar    1  UNL1        0.0824
     10 C         140.6928  141.8197  159.1199 C.ar    1  UNL1        0.0249
     11 C         140.7247  140.8834  157.9484 C.ar    1  UNL1        0.0921
     12 C         142.0178  140.6162  157.2368 C.ar    1  UNL1        0.1568
     13 F         142.0496  139.6798  156.0654 F       1  UNL1       -0.2027
     14 C         143.2791  141.2854  157.6966 C.ar    1  UNL1        0.0607
     15 C         143.2472  142.2217  158.8680 C.ar    1  UNL1        0.1468
     16 F         144.5084  142.8909  159.3278 F       1  UNL1       -0.2039
     17 N         139.4634  140.2142  157.4887 N.pl3   1  UNL1       -0.2165
     18 H         139.4260  139.2333  157.4130 H       1  UNL1        0.1734
     19 S         138.2592  141.0395  157.1441 S.O2    1  UNL1        0.0559
     20 C         137.0549  141.8647  156.7995 C.3     1  UNL1        0.1996
     21 O         137.5004  140.4026  158.2705 O.2     1  UNL1       -0.1544
     22 O         139.0178  141.6763  156.0177 O.2     1  UNL1       -0.1544
     23 C         141.6232  142.2661  166.3555 C.ar    1  UNL1       -0.0204
     24 C         140.3639  142.8803  166.8909 C.ar    1  UNL1       -0.0041
     25 C         140.3083  143.3596  168.3112 C.ar    1  UNL1        0.0020
     26 C         141.5120  143.2247  169.1960 C.ar    1  UNL1        0.0296
     27 C         142.7714  142.6105  168.6605 C.ar    1  UNL1        0.1398
     28 F         143.9751  142.4756  169.5452 F       1  UNL1       -0.2042
     29 C         142.8269  142.1312  167.2401 C.ar    1  UNL1        0.0254
     30 C         141.6103  140.4708  165.6516 C.3     1  UNL1        0.0215
     31 C         140.3733  139.6277  165.5549 C.3     1  UNL1        0.0723
     32 C         140.3142  139.5887  165.4149 C.3     1  UNL1        0.0893
     33 C         139.3367  140.7109  165.6035 C.3     1  UNL1        0.0386
     34 C         138.3130  140.9996  164.5458 C.3     1  UNL1        0.0594
     35 C         137.5055  140.9253  163.2839 C.3     1  UNL1        0.0174
     36 C         138.0431  139.7962  162.4555 C.3     1  UNL1        0.0174
     37 C         139.1828  139.1727  163.2053 C.3     1  UNL1        0.0594
     38 C         140.2678  138.7553  164.1686 C.3     1  UNL1        0.0386
     39 N         139.3497  139.9164  164.4973 N.3     1  UNL1       -0.2751
     40 C         142.9897  138.5213  164.7843 C.3     1  UNL1        0.0718
     41 C         142.7172  138.7583  166.2401 C.ar    1  UNL1        0.1207
     42 N         143.3937  138.6258  167.5723 N.ar    1  UNL1       -0.2309
     43 C         142.4325  139.0857  168.6281 C.ar    1  UNL1        0.0983
     44 C         142.5501  139.1788  170.1206 C.ar    1  UNL1        0.0206
     45 C         141.3971  139.6887  170.9333 C.ar    1  UNL1        0.0016
     46 C         140.1265  140.1053  170.2536 C.ar    1  UNL1        0.0016
     47 C         140.0089  140.0122  168.7612 C.ar    1  UNL1        0.0188
     48 C         141.1619  139.5023  167.9484 C.ar    1  UNL1        0.0785
     49 N         141.3379  139.3000  166.4726 N.ar    1  UNL1       -0.3167
@<TRIPOS>BOND
     1    40    41    1
     2    41    42   ar
     3    42    43   ar
     4    43    44   ar
     5    44    45   ar
     6    45    46   ar
     7    46    47   ar
     8    47    48   ar
     9    48    49   ar
    10    49    32    1
    11    32    33    1
    12    33    34    1
    13    34    35    1
    14    35    36    1
    15    36    37    1
    16    37    38    1
    17    37    39    1
    18    39    31    1
    19    31    30    1
    20    30     1    1
    21     1    23    1
    22    23    24   ar
    23    24    25   ar
    24    25    26   ar
    25    26    27   ar
    26    27    28    1
    27    27    29   ar
    28     1     2    1
    29     2     3    1
    30     3     4    1
    31     4     5   am
    32     5     6    2
    33     5     9    1
    34     9    10   ar
    35    10    11   ar
    36    11    17    1
    37    17    19    1
    38    19    20    1
    39    19    21    2
    40    19    22    2
    41    11    12   ar
    42    12    13    1
    43    12    14   ar
    44    14    15   ar
    45    15    16    1
    46     4     7    1
    47     7     8    1
    48    49    41   ar
    49    38    32    1
    50     8     1    1
    51    48    43   ar
    52    39    34    1
    53    29    23   ar
    54    15     9   ar
    55    17    18    1
@<TRIPOS>MOLECULE
*****
 49 55 0 0 0
SMALL
GASTEIGER

@<TRIPOS>ATOM
      1 C         140.3865  142.2365  161.6275 C.3     1  UNL1        0.0236
      2 C         141.2580  141.6276  160.5694 C.3     1  UNL1        0.0257
      3 C         140.6368  140.9697  159.3730 C.3     1  UNL1        0.0940
      4 N         139.1440  140.9209  159.2347 N.am    1  UNL1       -0.2760
      5 C         138.5228  140.2631  158.0383 C.2     1  UNL1        0.2512
      6 O         137.0300  140.2142  157.9000 O.2     1  UNL1       -0.2698
      7 C         138.2724  141.5298  160.2928 C.3     1  UNL1        0.0940
      8 C         138.8936  142.1876  161.4892 C.3     1  UNL1        0.0257
      9 C         139.3944  139.6542  156.9802 C.ar    1  UNL1        0.0824
     10 C         139.7382  138.1953  157.0396 C.ar    1  UNL1        0.0249
     11 C         140.6099  137.5865  155.9816 C.ar    1  UNL1        0.0921
     12 C         141.1378  138.4365  154.8640 C.ar    1  UNL1        0.1568
     13 F         142.0094  137.8277  153.8060 F       1  UNL1       -0.2027
     14 C         140.7940  139.8954  154.8046 C.ar    1  UNL1        0.0607
     15 C         139.9223  140.5042  155.8627 C.ar    1  UNL1        0.1468
     16 F         139.5785  141.9631  155.8033 F       1  UNL1       -0.2039
     17 N         140.9537  136.1276  156.0410 N.pl3   1  UNL1       -0.2165
     18 H         140.2366  135.4538  156.0731 H       1  UNL1        0.1734
     19 S         142.3900  135.6954  156.0514 S.O2    1  UNL1        0.0559
     20 C         143.8264  135.2631  156.0618 C.3     1  UNL1        0.1996
     21 O         142.1528  134.8773  154.8166 O.2     1  UNL1       -0.1544
     22 O         142.6273  136.5134  157.2860 O.2     1  UNL1       -0.1544
     23 C         139.9848  142.9482  162.8854 C.ar    1  UNL1       -0.0204
     24 C         139.3858  144.3214  162.8115 C.ar    1  UNL1       -0.0041
     25 C         138.9842  145.0332  164.0694 C.ar    1  UNL1        0.0020
     26 C         139.1816  144.3716  165.4011 C.ar    1  UNL1        0.0296
     27 C         139.7806  142.9984  165.4749 C.ar    1  UNL1        0.1398
     28 F         139.9779  142.3369  166.8066 F       1  UNL1       -0.2042
     29 C         140.1822  142.2867  164.2170 C.ar    1  UNL1        0.0254
     30 C         141.7397  142.5325  162.2027 C.3     1  UNL1        0.0215
     31 C         142.6247  143.5536  161.5511 C.3     1  UNL1        0.0723
     32 C         142.6499  143.5496  161.3962 C.3     1  UNL1        0.0893
     33 C         141.6085  144.6230  161.2795 C.3     1  UNL1        0.0386
     34 C         141.2494  145.1763  159.9323 C.3     1  UNL1        0.0594
     35 C         141.2155  145.4184  158.4524 C.3     1  UNL1        0.0174
     36 C         142.2107  144.4986  157.8093 C.3     1  UNL1        0.0174
     37 C         142.8597  143.6880  158.8918 C.3     1  UNL1        0.0594
     38 C         143.3322  143.0298  160.1657 C.3     1  UNL1        0.0386
     39 N         142.2656  144.1069  160.2040 N.3     1  UNL1       -0.2751
     40 C         142.7492  145.2216  163.8232 C.3     1  UNL1        0.0718
     41 C         143.0830  143.7731  164.0244 C.ar    1  UNL1        0.1207
     42 N         143.4768  142.8258  165.1188 N.ar    1  UNL1       -0.2309
     43 C         143.6460  141.4636  164.5141 C.ar    1  UNL1        0.0983
     44 C         144.0261  140.1409  165.1106 C.ar    1  UNL1        0.0206
     45 C         144.1170  138.9235  164.2391 C.ar    1  UNL1        0.0016
     46 C         143.8278  139.0288  162.7710 C.ar    1  UNL1        0.0016
     47 C         143.4478  140.3515  162.1745 C.ar    1  UNL1        0.0188
     48 C         143.3569  141.5689  163.0460 C.ar    1  UNL1        0.0785
     49 N         143.0089  142.9963  162.7434 N.ar    1  UNL1       -0.3167
@<TRIPOS>BOND
     1    40    41    1
     2    41    42   ar
     3    42    43   ar
     4    43    44   ar
     5    44    45   ar
     6    45    46   ar
     7    46    47   ar
     8    47    48   ar
     9    48    49   ar
    10    49    32    1
    11    32    33    1
    12    33    34    1
    13    34    35    1
    14    35    36    1
    15    36    37    1
    16    37    38    1
    17    37    39    1
    18    39    31    1
    19    31    30    1
    20    30     1    1
    21     1    23    1
    22    23    24   ar
    23    24    25   ar
    24    25    26   ar
    25    26    27   ar
    26    27    28    1
    27    27    29   ar
    28     1     2    1
    29     2     3    1
    30     3     4    1
    31     4     5   am
    32     5     6    2
    33     5     9    1
    34     9    10   ar
    35    10    11   ar
    36    11    17    1
    37    17    19    1
    38    19    20    1
    39    19    21    2
    40    19    22    2
    41    11    12   ar
    42    12    13    1
    43    12    14   ar
    44    14    15   ar
    45    15    16    1
    46     4     7    1
    47     7     8    1
    48    49    41   ar
    49    38    32    1
    50     8     1    1
    51    48    43   ar
    52    39    34    1
    53    29    23   ar
    54    15     9   ar
    55    17    18    1
@<TRIPOS>MOLECULE
*****
 49 55 0 0 0
SMALL
GASTEIGER

@<TRIPOS>ATOM
      1 C         140.3862  141.5763  161.3418 C.3     1  UNL1        0.0236
      2 C         141.1269  141.9223  162.5995 C.3     1  UNL1        0.0257
      3 C         140.9399  141.0898  163.8332 C.3     1  UNL1        0.0940
      4 N         140.0121  139.9114  163.8092 N.am    1  UNL1       -0.2760
      5 C         139.8250  139.0789  165.0430 C.2     1  UNL1        0.2512
      6 O         138.8972  137.9005  165.0190 O.2     1  UNL1       -0.2698
      7 C         139.2714  139.5655  162.5516 C.3     1  UNL1        0.0940
      8 C         139.4584  140.3979  161.3179 C.3     1  UNL1        0.0257
      9 C         140.5657  139.4250  166.3006 C.ar    1  UNL1        0.0824
     10 C         139.8778  140.1953  167.3884 C.ar    1  UNL1        0.0249
     11 C         140.6187  140.5413  168.6460 C.ar    1  UNL1        0.0921
     12 C         142.0473  140.1169  168.8157 C.ar    1  UNL1        0.1568
     13 F         142.7881  140.4629  170.0733 F       1  UNL1       -0.2027
     14 C         142.7352  139.3466  167.7279 C.ar    1  UNL1        0.0607
     15 C         141.9944  139.0006  166.4703 C.ar    1  UNL1        0.1468
     16 F         142.6823  138.2303  165.3825 F       1  UNL1       -0.2039
     17 N         139.9308  141.3116  169.7338 N.pl3   1  UNL1       -0.2165
     18 H         139.2632  140.8674  170.3050 H       1  UNL1        0.1734
     19 S         140.2600  142.7588  169.9514 S.O2    1  UNL1        0.0559
     20 C         140.5892  144.2060  170.1689 C.3     1  UNL1        0.1996
     21 O         140.3127  142.5242  171.4320 O.2     1  UNL1       -0.1544
     22 O         140.2072  142.9934  168.4708 O.2     1  UNL1       -0.1544
     23 C         139.9103  141.6483  159.9211 C.ar    1  UNL1       -0.0204
     24 C         138.5242  142.1349  159.6182 C.ar    1  UNL1       -0.0041
     25 C         138.0483  142.2068  158.1975 C.ar    1  UNL1        0.0020
     26 C         138.9586  141.7921  157.0797 C.ar    1  UNL1        0.0296
     27 C         140.3448  141.3055  157.3827 C.ar    1  UNL1        0.1398
     28 F         141.2550  140.8908  156.2649 F       1  UNL1       -0.2042
     29 C         140.8206  141.2336  158.8034 C.ar    1  UNL1        0.0254
     30 C         141.1487  142.7797  160.8724 C.3     1  UNL1        0.0215
     31 C         140.8403  144.1325  161.4425 C.3     1  UNL1        0.0723
     32 C         140.8315  144.1588  161.5970 C.3     1  UNL1        0.0893
     33 C         139.3480  143.9819  161.4628 C.3     1  UNL1        0.0386
     34 C         138.4659  144.1038  162.6700 C.3     1  UNL1        0.0594
     35 C         137.9990  144.3045  164.0812 C.3     1  UNL1        0.0174
     36 C         139.2027  144.5792  164.9331 C.3     1  UNL1        0.0174
     37 C         140.4136  144.5481  164.0483 C.3     1  UNL1        0.0594
     38 C         141.4329  144.4576  162.9382 C.3     1  UNL1        0.0386
     39 N         139.9583  144.2543  162.6495 N.3     1  UNL1       -0.2751
     40 C         143.5467  143.0154  161.7247 C.3     1  UNL1        0.0718
     41 C         143.1021  143.4700  160.3661 C.ar    1  UNL1        0.1207
     42 N         143.6086  143.5433  158.9561 N.ar    1  UNL1       -0.2309
     43 C         142.5331  144.1555  158.1085 C.ar    1  UNL1        0.0983
     44 C         142.4690  144.4746  156.6442 C.ar    1  UNL1        0.0206
     45 C         141.2336  145.0988  156.0661 C.ar    1  UNL1        0.0016
     46 C         140.0624  145.4039  156.9522 C.ar    1  UNL1        0.0016
     47 C         140.1266  145.0848  158.4165 C.ar    1  UNL1        0.0188
     48 C         141.3619  144.4606  158.9946 C.ar    1  UNL1        0.0785
     49 N         141.7136  144.0369  160.3899 N.ar    1  UNL1       -0.3167
@<TRIPOS>BOND
     1    40    41    1
     2    41    42   ar
     3    42    43   ar
     4    43    44   ar
     5    44    45   ar
     6    45    46   ar
     7    46    47   ar
     8    47    48   ar
     9    48    49   ar
    10    49    32    1
    11    32    33    1
    12    33    34    1
    13    34    35    1
    14    35    36    1
    15    36    37    1
    16    37    38    1
    17    37    39    1
    18    39    31    1
    19    31    30    1
    20    30     1    1
    21     1    23    1
    22    23    24   ar
    23    24    25   ar
    24    25    26   ar
    25    26    27   ar
    26    27    28    1
    27    27    29   ar
    28     1     2    1
    29     2     3    1
    30     3     4    1
    31     4     5   am
    32     5     6    2
    33     5     9    1
    34     9    10   ar
    35    10    11   ar
    36    11    17    1
    37    17    19    1
    38    19    20    1
    39    19    21    2
    40    19    22    2
    41    11    12   ar
    42    12    13    1
    43    12    14   ar
    44    14    15   ar
    45    15    16    1
    46     4     7    1
    47     7     8    1
    48    49    41   ar
    49    38    32    1
    50     8     1    1
    51    48    43   ar
    52    39    34    1
    53    29    23   ar
    54    15     9   ar
    55    17    18    1
@<TRIPOS>MOLECULE
*****
 49 55 0 0 0
SMALL
GASTEIGER

@<TRIPOS>ATOM
      1 C         141.8815  141.2445  161.9515 C.3     1  UNL1        0.0236
      2 C         140.8146  140.6341  161.0917 C.3     1  UNL1        0.0257
      3 C         141.1697  140.0533  159.7550 C.3     1  UNL1        0.0940
      4 N         142.5915  140.0829  159.2782 N.am    1  UNL1       -0.2760
      5 C         142.9465  139.5021  157.9415 C.2     1  UNL1        0.2512
      6 O         144.3684  139.5316  157.4646 O.2     1  UNL1       -0.2698
      7 C         143.6584  140.6933  160.1380 C.3     1  UNL1        0.0940
      8 C         143.3034  141.2741  161.4745 C.3     1  UNL1        0.0257
      9 C         141.8796  138.8917  157.0818 C.ar    1  UNL1        0.0824
     10 C         140.9096  139.7725  156.3516 C.ar    1  UNL1        0.0249
     11 C         139.8427  139.1620  155.4919 C.ar    1  UNL1        0.0921
     12 C         139.7459  137.6708  155.3624 C.ar    1  UNL1        0.1568
     13 F         138.6789  137.0604  154.5026 F       1  UNL1       -0.2027
     14 C         140.7159  136.7899  156.0925 C.ar    1  UNL1        0.0607
     15 C         141.7828  137.4004  156.9522 C.ar    1  UNL1        0.1468
     16 F         142.7528  136.5196  157.6824 F       1  UNL1       -0.2039
     17 N         138.8727  140.0428  154.7617 N.pl3   1  UNL1       -0.2165
     18 H         138.8507  140.0410  153.7774 H       1  UNL1        0.1734
     19 S         137.9361  140.9265  155.5311 S.O2    1  UNL1        0.0559
     20 C         136.9996  141.8102  156.3006 C.3     1  UNL1        0.1996
     21 O         138.7103  142.1326  155.0883 O.2     1  UNL1       -0.1544
     22 O         137.1620  139.7206  155.9740 O.2     1  UNL1       -0.1544
     23 C         142.5332  141.9270  163.1175 C.ar    1  UNL1       -0.0204
     24 C         142.7315  141.1848  164.4059 C.ar    1  UNL1       -0.0041
     25 C         143.3832  141.8673  165.5719 C.ar    1  UNL1        0.0020
     26 C         143.8366  143.2919  165.4495 C.ar    1  UNL1        0.0296
     27 C         143.6383  144.0340  164.1610 C.ar    1  UNL1        0.1398
     28 F         144.0917  145.4585  164.0387 F       1  UNL1       -0.2042
     29 C         142.9866  143.3515  162.9951 C.ar    1  UNL1        0.0254
     30 C         140.6860  141.4520  162.8333 C.3     1  UNL1        0.0215
     31 C         139.6194  142.4279  162.4334 C.3     1  UNL1        0.0723
     32 C         139.5638  142.4273  162.2866 C.3     1  UNL1        0.0893
     33 C         140.4683  143.5947  162.0237 C.3     1  UNL1        0.0386
     34 C         140.5014  144.2265  160.6636 C.3     1  UNL1        0.0594
     35 C         140.2160  144.5235  159.2213 C.3     1  UNL1        0.0174
     36 C         139.1907  143.5403  158.7396 C.3     1  UNL1        0.0174
     37 C         138.8424  142.6356  159.8843 C.3     1  UNL1        0.0594
     38 C         138.6925  141.8918  161.1895 C.3     1  UNL1        0.0386
     39 N         139.6525  143.0597  161.0734 N.3     1  UNL1       -0.2751
     40 C         139.9361  143.9790  164.7664 C.3     1  UNL1        0.0718
     41 C         139.7101  142.5080  164.9544 C.ar    1  UNL1        0.1207
     42 N         139.6027  141.4932  166.0537 N.ar    1  UNL1       -0.2309
     43 C         139.3569  140.1534  165.4254 C.ar    1  UNL1        0.0983
     44 C         139.1679  138.7875  166.0157 C.ar    1  UNL1        0.0206
     45 C         138.9343  137.6085  165.1184 C.ar    1  UNL1        0.0016
     46 C         138.8899  137.7954  163.6307 C.ar    1  UNL1        0.0016
     47 C         139.0789  139.1613  163.0404 C.ar    1  UNL1        0.0188
     48 C         139.3124  140.3403  163.9378 C.ar    1  UNL1        0.0785
     49 N         139.5307  141.7955  163.6467 N.ar    1  UNL1       -0.3167
@<TRIPOS>BOND
     1    40    41    1
     2    41    42   ar
     3    42    43   ar
     4    43    44   ar
     5    44    45   ar
     6    45    46   ar
     7    46    47   ar
     8    47    48   ar
     9    48    49   ar
    10    49    32    1
    11    32    33    1
    12    33    34    1
    13    34    35    1
    14    35    36    1
    15    36    37    1
    16    37    38    1
    17    37    39    1
    18    39    31    1
    19    31    30    1
    20    30     1    1
    21     1    23    1
    22    23    24   ar
    23    24    25   ar
    24    25    26   ar
    25    26    27   ar
    26    27    28    1
    27    27    29   ar
    28     1     2    1
    29     2     3    1
    30     3     4    1
    31     4     5   am
    32     5     6    2
    33     5     9    1
    34     9    10   ar
    35    10    11   ar
    36    11    17    1
    37    17    19    1
    38    19    20    1
    39    19    21    2
    40    19    22    2
    41    11    12   ar
    42    12    13    1
    43    12    14   ar
    44    14    15   ar
    45    15    16    1
    46     4     7    1
    47     7     8    1
    48    49    41   ar
    49    38    32    1
    50     8     1    1
    51    48    43   ar
    52    39    34    1
    53    29    23   ar
    54    15     9   ar
    55    17    18    1
@<TRIPOS>MOLECULE
*****
 49 55 0 0 0
SMALL
GASTEIGER

@<TRIPOS>ATOM
      1 C         141.0429  142.1381  161.1807 C.3     1  UNL1        0.0236
      2 C         140.7304  141.2177  162.3232 C.3     1  UNL1        0.0257
      3 C         141.5399  141.2858  163.5842 C.3     1  UNL1        0.0940
      4 N         142.6619  142.2742  163.7027 N.am    1  UNL1       -0.2760
      5 C         143.4715  142.3423  164.9637 C.2     1  UNL1        0.2512
      6 O         144.5935  143.3308  165.0822 O.2     1  UNL1       -0.2698
      7 C         142.9744  143.1946  162.5602 C.3     1  UNL1        0.0940
      8 C         142.1650  143.1265  161.2993 C.3     1  UNL1        0.0257
      9 C         143.1589  141.4220  166.1061 C.ar    1  UNL1        0.0824
     10 C         142.7096  141.9852  167.4217 C.ar    1  UNL1        0.0249
     11 C         142.3971  141.0647  168.5641 C.ar    1  UNL1        0.0921
     12 C         142.5338  139.5810  168.3909 C.ar    1  UNL1        0.1568
     13 F         142.2213  138.6606  169.5334 F       1  UNL1       -0.2027
     14 C         142.9832  139.0178  167.0753 C.ar    1  UNL1        0.0607
     15 C         143.2957  139.9383  165.9329 C.ar    1  UNL1        0.1468
     16 F         143.7450  139.3750  164.6173 F       1  UNL1       -0.2039
     17 N         141.9477  141.6279  169.8798 N.pl3   1  UNL1       -0.2165
     18 H         142.1838  141.1690  170.7181 H       1  UNL1        0.1734
     19 S         141.1387  142.8905  169.9181 S.O2    1  UNL1        0.0559
     20 C         140.3296  144.1530  169.9564 C.3     1  UNL1        0.1996
     21 O         142.3121  143.6249  170.4957 O.2     1  UNL1       -0.1544
     22 O         139.9653  142.1561  169.3405 O.2     1  UNL1       -0.1544
     23 C         140.9551  142.7944  159.8347 C.ar    1  UNL1       -0.0204
     24 C         141.3837  142.0472  158.6067 C.ar    1  UNL1       -0.0041
     25 C         141.2959  142.7035  157.2607 C.ar    1  UNL1        0.0020
     26 C         140.7797  144.1069  157.1429 C.ar    1  UNL1        0.0296
     27 C         140.3512  144.8541  158.3710 C.ar    1  UNL1        0.1398
     28 F         139.8350  146.2574  158.2530 F       1  UNL1       -0.2042
     29 C         140.4389  144.1977  159.7169 C.ar    1  UNL1        0.0254
     30 C         139.8904  141.3776  160.5948 C.3     1  UNL1        0.0215
     31 C         138.5119  141.5516  161.1602 C.3     1  UNL1        0.0723
     32 C         138.4842  141.5510  161.3147 C.3     1  UNL1        0.0893
     33 C         138.5330  143.0488  161.2487 C.3     1  UNL1        0.0386
     34 C         138.3297  143.8614  162.4931 C.3     1  UNL1        0.0594
     35 C         138.0827  144.2447  163.9221 C.3     1  UNL1        0.0174
     36 C         137.9090  142.9843  164.7167 C.3     1  UNL1        0.0174
     37 C         138.0487  141.8221  163.7788 C.3     1  UNL1        0.0594
     38 C         138.2321  140.8659  162.6250 C.3     1  UNL1        0.0386
     39 N         138.3087  142.3641  162.4045 N.3     1  UNL1       -0.2751
     40 C         139.6706  138.8517  161.3583 C.3     1  UNL1        0.0718
     41 C         139.2812  139.3626  160.0029 C.ar    1  UNL1        0.1207
     42 N         139.2933  138.9330  158.5658 N.ar    1  UNL1       -0.2309
     43 C         138.7071  140.0433  157.7450 C.ar    1  UNL1        0.0983
     44 C         138.4659  140.1824  156.2711 C.ar    1  UNL1        0.0206
     45 C         137.8502  141.4374  155.7271 C.ar    1  UNL1        0.0016
     46 C         137.4758  142.5532  156.6570 C.ar    1  UNL1        0.0016
     47 C         137.7170  142.4141  158.1309 C.ar    1  UNL1        0.0188
     48 C         138.3326  141.1592  158.6749 C.ar    1  UNL1        0.0785
     49 N         138.6875  140.7385  160.0703 N.ar    1  UNL1       -0.3167
@<TRIPOS>BOND
     1    40    41    1
     2    41    42   ar
     3    42    43   ar
     4    43    44   ar
     5    44    45   ar
     6    45    46   ar
     7    46    47   ar
     8    47    48   ar
     9    48    49   ar
    10    49    32    1
    11    32    33    1
    12    33    34    1
    13    34    35    1
    14    35    36    1
    15    36    37    1
    16    37    38    1
    17    37    39    1
    18    39    31    1
    19    31    30    1
    20    30     1    1
    21     1    23    1
    22    23    24   ar
    23    24    25   ar
    24    25    26   ar
    25    26    27   ar
    26    27    28    1
    27    27    29   ar
    28     1     2    1
    29     2     3    1
    30     3     4    1
    31     4     5   am
    32     5     6    2
    33     5     9    1
    34     9    10   ar
    35    10    11   ar
    36    11    17    1
    37    17    19    1
    38    19    20    1
    39    19    21    2
    40    19    22    2
    41    11    12   ar
    42    12    13    1
    43    12    14   ar
    44    14    15   ar
    45    15    16    1
    46     4     7    1
    47     7     8    1
    48    49    41   ar
    49    38    32    1
    50     8     1    1
    51    48    43   ar
    52    39    34    1
    53    29    23   ar
    54    15     9   ar
    55    17    18    1
@<TRIPOS>MOLECULE
*****
 49 55 0 0 0
SMALL
GASTEIGER

@<TRIPOS>ATOM
      1 C         140.4591  141.2333  161.4952 C.3     1  UNL1        0.0236
      2 C         141.7155  140.7933  160.8040 C.3     1  UNL1        0.0257
      3 C         141.6343  140.0143  159.5247 C.3     1  UNL1        0.0940
      4 N         140.2967  139.6752  158.9366 N.am    1  UNL1       -0.2760
      5 C         140.2155  138.8962  157.6573 C.2     1  UNL1        0.2512
      6 O         138.8779  138.5571  157.0693 O.2     1  UNL1       -0.2698
      7 C         139.0403  140.1152  159.6279 C.3     1  UNL1        0.0940
      8 C         139.1214  140.8941  160.9071 C.3     1  UNL1        0.0257
      9 C         141.4720  138.4562  156.9662 C.ar    1  UNL1        0.0824
     10 C         141.9259  137.0304  157.0710 C.ar    1  UNL1        0.0249
     11 C         143.1824  136.5906  156.3798 C.ar    1  UNL1        0.0921
     12 C         143.9850  137.5766  155.5837 C.ar    1  UNL1        0.1568
     13 F         145.2415  137.1367  154.8926 F       1  UNL1       -0.2027
     14 C         143.5312  139.0024  155.4790 C.ar    1  UNL1        0.0607
     15 C         142.2747  139.4423  156.1702 C.ar    1  UNL1        0.1468
     16 F         141.8208  140.8681  156.0654 F       1  UNL1       -0.2039
     17 N         143.6362  135.1648  156.4845 N.pl3   1  UNL1       -0.2165
     18 H         144.5299  134.9576  156.8420 H       1  UNL1        0.1734
     19 S         142.7285  134.0545  156.0448 S.O2    1  UNL1        0.0559
     20 C         141.8208  132.9442  155.6050 C.3     1  UNL1        0.1996
     21 O         142.8002  133.4524  157.4168 O.2     1  UNL1       -0.1544
     22 O         142.6568  134.6565  154.6728 O.2     1  UNL1       -0.1544
     23 C         139.5585  141.8675  162.5135 C.ar    1  UNL1       -0.0204
     24 C         139.3937  141.2376  163.8648 C.ar    1  UNL1       -0.0041
     25 C         138.4931  141.8718  164.8831 C.ar    1  UNL1        0.0020
     26 C         137.7574  143.1359  164.5499 C.ar    1  UNL1        0.0296
     27 C         137.9223  143.7657  163.1985 C.ar    1  UNL1        0.1398
     28 F         137.1866  145.0297  162.8654 F       1  UNL1       -0.2042
     29 C         138.8229  143.1314  162.1803 C.ar    1  UNL1        0.0254
     30 C         141.4839  141.7926  162.4368 C.3     1  UNL1        0.0215
     31 C         142.3284  142.9599  162.0192 C.3     1  UNL1        0.0723
     32 C         142.4066  142.9540  161.8832 C.3     1  UNL1        0.0893
     33 C         141.3093  143.7987  161.3066 C.3     1  UNL1        0.0386
     34 C         141.3589  144.2110  159.8652 C.3     1  UNL1        0.0594
     35 C         141.8064  144.3753  158.4430 C.3     1  UNL1        0.0174
     36 C         143.1020  143.6380  158.2766 C.3     1  UNL1        0.0174
     37 C         143.4553  143.0180  159.5960 C.3     1  UNL1        0.0594
     38 C         143.5534  142.5216  161.0185 C.3     1  UNL1        0.0386
     39 N         142.3779  143.3722  160.5779 N.3     1  UNL1       -0.2751
     40 C         141.4027  144.7340  164.0091 C.3     1  UNL1        0.0718
     41 C         141.8633  143.3813  164.4653 C.ar    1  UNL1        0.1207
     42 N         141.9937  142.5759  165.7240 N.ar    1  UNL1       -0.2309
     43 C         142.5679  141.2385  165.3612 C.ar    1  UNL1        0.0983
     44 C         142.9153  140.0372  166.1896 C.ar    1  UNL1        0.0206
     45 C         143.4872  138.8148  165.5350 C.ar    1  UNL1        0.0016
     46 C         143.7118  138.7937  164.0521 C.ar    1  UNL1        0.0016
     47 C         143.3644  139.9949  163.2237 C.ar    1  UNL1        0.0188
     48 C         142.7925  141.2174  163.8783 C.ar    1  UNL1        0.0785
     49 N         142.3570  142.5417  163.3246 N.ar    1  UNL1       -0.3167
@<TRIPOS>BOND
     1    40    41    1
     2    41    42   ar
     3    42    43   ar
     4    43    44   ar
     5    44    45   ar
     6    45    46   ar
     7    46    47   ar
     8    47    48   ar
     9    48    49   ar
    10    49    32    1
    11    32    33    1
    12    33    34    1
    13    34    35    1
    14    35    36    1
    15    36    37    1
    16    37    38    1
    17    37    39    1
    18    39    31    1
    19    31    30    1
    20    30     1    1
    21     1    23    1
    22    23    24   ar
    23    24    25   ar
    24    25    26   ar
    25    26    27   ar
    26    27    28    1
    27    27    29   ar
    28     1     2    1
    29     2     3    1
    30     3     4    1
    31     4     5   am
    32     5     6    2
    33     5     9    1
    34     9    10   ar
    35    10    11   ar
    36    11    17    1
    37    17    19    1
    38    19    20    1
    39    19    21    2
    40    19    22    2
    41    11    12   ar
    42    12    13    1
    43    12    14   ar
    44    14    15   ar
    45    15    16    1
    46     4     7    1
    47     7     8    1
    48    49    41   ar
    49    38    32    1
    50     8     1    1
    51    48    43   ar
    52    39    34    1
    53    29    23   ar
    54    15     9   ar
    55    17    18    1
