@<TRIPOS>MOLECULE
*****
 28 30 0 0 0
SMALL
GASTEIGER

@<TRIPOS>ATOM
      1 C         139.7962  142.9983  165.4173 C.ar    1  UNL1       -0.0002
      2 C         139.1251  144.3395  165.3885 C.ar    1  UNL1       -0.0000
      3 C         138.0887  144.6374  164.3457 C.ar    1  UNL1       -0.0002
      4 C         137.7234  143.5940  163.3318 C.ar    1  UNL1       -0.0007
      5 C         138.3945  142.2528  163.3607 C.ar    1  UNL1        0.0212
      6 C         139.4309  141.9549  164.4034 C.ar    1  UNL1       -0.0007
      7 C         141.4559  142.1723  168.9263 C.ar    1  UNL1       -0.0066
      8 C         142.9052  142.1046  168.5454 C.ar    1  UNL1       -0.0029
      9 C         143.3181  142.3348  167.1219 C.ar    1  UNL1       -0.0003
     10 C         142.2818  142.6327  166.0792 C.ar    1  UNL1       -0.0000
     11 C         140.8326  142.7004  166.4600 C.ar    1  UNL1       -0.0003
     12 C         140.4196  142.4702  167.8836 C.ar    1  UNL1       -0.0029
     13 N         139.9846  140.9283  170.6692 N.3     1  UNL1       -0.3175
     14 C         141.0430  141.9421  170.3498 C.3     1  UNL1        0.0922
     15 H         139.8308  140.9034  171.6772 H       1  UNL1        0.1192
     16 H         140.2871  140.0085  170.3485 H       1  UNL1        0.1192
     17 C         138.0292  141.2094  162.3468 C.3     1  UNL1        0.2320
     18 O         137.7047  139.8137  162.7905 O.3     1  UNL1       -0.4709
     19 C         138.7962  138.9104  163.2831 C.ar    1  UNL1        0.1354
     20 C         139.7345  138.2660  162.3062 C.ar    1  UNL1        0.0366
     21 C         140.8261  137.3628  162.7988 C.ar    1  UNL1        0.0031
     22 C         140.9793  137.1039  164.2682 C.ar    1  UNL1       -0.0001
     23 C         140.0410  137.7483  165.2452 C.ar    1  UNL1       -0.0009
     24 C         138.9495  138.6515  164.7526 C.ar    1  UNL1        0.0174
     25 C         138.0112  139.2959  165.7295 C.3     1  UNL1        0.0710
     26 C         137.8874  138.7511  167.1216 C.2     1  UNL1        0.0548
     27 O         136.9871  137.5822  167.3922 O.co2   1  UNL1       -0.5488
     28 O         138.6638  139.3751  168.2431 O.co2   1  UNL1       -0.5488
@<TRIPOS>UNITY_ATOM_ATTR
27 1
charge -1
@<TRIPOS>BOND
     1    13    14    1
     2    14     7    1
     3     7     8   ar
     4     8     9   ar
     5     9    10   ar
     6    10    11   ar
     7    11     1    1
     8     1     2   ar
     9     2     3   ar
    10     3     4   ar
    11     4     5   ar
    12     5    17    1
    13    17    18    1
    14    18    19    1
    15    19    20   ar
    16    20    21   ar
    17    21    22   ar
    18    22    23   ar
    19    23    24   ar
    20    24    25    1
    21    25    26    1
    22    26    27   ar
    23    26    28   ar
    24     5     6   ar
    25    11    12   ar
    26    12     7   ar
    27     6     1   ar
    28    24    19   ar
    29    13    15    1
    30    13    16    1
@<TRIPOS>MOLECULE
*****
 28 30 0 0 0
SMALL
GASTEIGER

@<TRIPOS>ATOM
      1 C         140.1504  142.1302  165.9706 C.ar    1  UNL1       -0.0002
      2 C         140.6824  142.1955  167.3716 C.ar    1  UNL1       -0.0000
      3 C         140.3792  141.0918  168.3412 C.ar    1  UNL1       -0.0002
      4 C         139.5440  139.9229  167.9098 C.ar    1  UNL1       -0.0007
      5 C         139.0120  139.8577  166.5087 C.ar    1  UNL1        0.0212
      6 C         139.3152  140.9613  165.5392 C.ar    1  UNL1       -0.0007
      7 C         142.1806  144.6845  163.7114 C.ar    1  UNL1       -0.0066
      8 C         141.0600  145.4411  163.0619 C.ar    1  UNL1       -0.0029
      9 C         139.6362  145.0941  163.3820 C.ar    1  UNL1       -0.0003
     10 C         139.3330  143.9905  164.3516 C.ar    1  UNL1       -0.0000
     11 C         140.4536  143.2339  165.0010 C.ar    1  UNL1       -0.0003
     12 C         141.8774  143.5809  164.6809 C.ar    1  UNL1       -0.0029
     13 N         144.3447  144.2633  162.3370 N.3     1  UNL1       -0.3175
     14 C         143.6043  145.0315  163.3913 C.3     1  UNL1        0.0922
     15 H         145.2925  144.6304  162.2513 H       1  UNL1        0.1192
     16 H         143.8611  144.3588  161.4440 H       1  UNL1        0.1192
     17 C         138.1769  138.6888  166.0773 C.3     1  UNL1        0.2320
     18 O         138.8150  137.5336  165.3642 O.3     1  UNL1       -0.4709
     19 C         139.4442  137.7383  164.0181 C.ar    1  UNL1        0.1354
     20 C         138.5804  137.8781  162.7998 C.ar    1  UNL1        0.0366
     21 C         139.2097  138.0828  161.4536 C.ar    1  UNL1        0.0031
     22 C         140.7027  138.1477  161.3257 C.ar    1  UNL1       -0.0001
     23 C         141.5667  138.0080  162.5440 C.ar    1  UNL1       -0.0009
     24 C         140.9374  137.8032  163.8902 C.ar    1  UNL1        0.0174
     25 C         141.8013  137.6635  165.1084 C.3     1  UNL1        0.0710
     26 C         142.5058  138.8628  165.6699 C.2     1  UNL1        0.0548
     27 O         143.0683  138.8198  167.0598 O.co2   1  UNL1       -0.5488
     28 O         142.6480  140.1052  164.8415 O.co2   1  UNL1       -0.5488
@<TRIPOS>UNITY_ATOM_ATTR
27 1
charge -1
@<TRIPOS>BOND
     1    13    14    1
     2    14     7    1
     3     7     8   ar
     4     8     9   ar
     5     9    10   ar
     6    10    11   ar
     7    11     1    1
     8     1     2   ar
     9     2     3   ar
    10     3     4   ar
    11     4     5   ar
    12     5    17    1
    13    17    18    1
    14    18    19    1
    15    19    20   ar
    16    20    21   ar
    17    21    22   ar
    18    22    23   ar
    19    23    24   ar
    20    24    25    1
    21    25    26    1
    22    26    27   ar
    23    26    28   ar
    24     5     6   ar
    25    11    12   ar
    26    12     7   ar
    27     6     1   ar
    28    24    19   ar
    29    13    15    1
    30    13    16    1
@<TRIPOS>MOLECULE
*****
 28 30 0 0 0
SMALL
GASTEIGER

@<TRIPOS>ATOM
      1 C         141.1373  141.8507  166.0651 C.ar    1  UNL1       -0.0002
      2 C         141.2125  141.9702  167.5584 C.ar    1  UNL1       -0.0000
      3 C         141.7801  140.8459  168.3732 C.ar    1  UNL1       -0.0002
      4 C         142.2726  139.6021  167.6945 C.ar    1  UNL1       -0.0007
      5 C         142.1973  139.4827  166.2011 C.ar    1  UNL1        0.0212
      6 C         141.6297  140.6070  165.3865 C.ar    1  UNL1       -0.0007
      7 C         140.6586  144.4976  163.1471 C.ar    1  UNL1       -0.0066
      8 C         139.4345  145.2236  163.6209 C.ar    1  UNL1       -0.0029
      9 C         138.7780  144.8253  164.9095 C.ar    1  UNL1       -0.0003
     10 C         139.3456  143.7011  165.7242 C.ar    1  UNL1       -0.0000
     11 C         140.5697  142.9751  165.2504 C.ar    1  UNL1       -0.0003
     12 C         141.2261  143.3734  163.9618 C.ar    1  UNL1       -0.0029
     13 N         142.7937  144.7153  161.6830 N.3     1  UNL1       -0.3175
     14 C         141.3151  144.8959  161.8585 C.3     1  UNL1        0.0922
     15 H         143.0676  145.0360  160.7543 H       1  UNL1        0.1192
     16 H         143.0302  143.7283  161.7852 H       1  UNL1        0.1192
     17 C         142.6898  138.2389  165.5225 C.3     1  UNL1        0.2320
     18 O         141.7089  137.2379  164.9877 O.3     1  UNL1       -0.4709
     19 C         140.8653  137.5779  163.7948 C.ar    1  UNL1        0.1354
     20 C         141.4967  137.6983  162.4396 C.ar    1  UNL1        0.0366
     21 C         140.6531  138.0383  161.2467 C.ar    1  UNL1        0.0031
     22 C         139.1782  138.2578  161.4092 C.ar    1  UNL1       -0.0001
     23 C         138.5468  138.1374  162.7645 C.ar    1  UNL1       -0.0009
     24 C         139.3904  137.7974  163.9574 C.ar    1  UNL1        0.0174
     25 C         138.7590  137.6769  165.3127 C.3     1  UNL1        0.0710
     26 C         138.3917  138.9115  166.0814 C.2     1  UNL1        0.0548
     27 O         138.3491  138.8767  167.5804 O.co2   1  UNL1       -0.5488
     28 O         138.0669  140.1808  165.3511 O.co2   1  UNL1       -0.5488
@<TRIPOS>UNITY_ATOM_ATTR
27 1
charge -1
@<TRIPOS>BOND
     1    13    14    1
     2    14     7    1
     3     7     8   ar
     4     8     9   ar
     5     9    10   ar
     6    10    11   ar
     7    11     1    1
     8     1     2   ar
     9     2     3   ar
    10     3     4   ar
    11     4     5   ar
    12     5    17    1
    13    17    18    1
    14    18    19    1
    15    19    20   ar
    16    20    21   ar
    17    21    22   ar
    18    22    23   ar
    19    23    24   ar
    20    24    25    1
    21    25    26    1
    22    26    27   ar
    23    26    28   ar
    24     5     6   ar
    25    11    12   ar
    26    12     7   ar
    27     6     1   ar
    28    24    19   ar
    29    13    15    1
    30    13    16    1
@<TRIPOS>MOLECULE
*****
 28 30 0 0 0
SMALL
GASTEIGER

@<TRIPOS>ATOM
      1 C         141.6686  141.8653  166.7439 C.ar    1  UNL1       -0.0002
      2 C         142.2110  141.7321  168.1360 C.ar    1  UNL1       -0.0000
      3 C         141.5600  140.7931  169.1080 C.ar    1  UNL1       -0.0002
      4 C         140.3666  139.9874  168.6877 C.ar    1  UNL1       -0.0007
      5 C         139.8242  140.1207  167.2955 C.ar    1  UNL1        0.0212
      6 C         140.4752  141.0596  166.3237 C.ar    1  UNL1       -0.0007
      7 C         142.1271  144.5577  163.8645 C.ar    1  UNL1       -0.0066
      8 C         143.6215  144.6820  163.8280 C.ar    1  UNL1       -0.0029
      9 C         144.4649  143.8674  164.7635 C.ar    1  UNL1       -0.0003
     10 C         143.8140  142.9285  165.7354 C.ar    1  UNL1       -0.0000
     11 C         142.3196  142.8042  165.7719 C.ar    1  UNL1       -0.0003
     12 C         141.4762  143.6188  164.8364 C.ar    1  UNL1       -0.0029
     13 N         139.8087  145.5018  163.1691 N.3     1  UNL1       -0.3175
     14 C         141.2837  145.3722  162.9290 C.3     1  UNL1        0.0922
     15 H         139.3960  146.0863  162.4421 H       1  UNL1        0.1192
     16 H         139.6490  145.9300  164.0810 H       1  UNL1        0.1192
     17 C         138.6308  139.3150  166.8753 C.3     1  UNL1        0.2320
     18 O         137.9119  139.6478  165.6015 O.3     1  UNL1       -0.4709
     19 C         138.4782  139.2082  164.2839 C.ar    1  UNL1        0.1354
     20 C         139.3906  138.0193  164.2189 C.ar    1  UNL1        0.0366
     21 C         139.9569  137.5797  162.9013 C.ar    1  UNL1        0.0031
     22 C         139.6108  138.3289  161.6487 C.ar    1  UNL1       -0.0001
     23 C         138.6985  139.5178  161.7137 C.ar    1  UNL1       -0.0009
     24 C         138.1322  139.9574  163.0313 C.ar    1  UNL1        0.0174
     25 C         137.2198  141.1463  163.0964 C.3     1  UNL1        0.0710
     26 C         137.7939  142.5320  163.1177 C.2     1  UNL1        0.0548
     27 O         137.9633  143.2934  161.8365 O.co2   1  UNL1       -0.5488
     28 O         138.1985  143.1561  164.4202 O.co2   1  UNL1       -0.5488
@<TRIPOS>UNITY_ATOM_ATTR
27 1
charge -1
@<TRIPOS>BOND
     1    13    14    1
     2    14     7    1
     3     7     8   ar
     4     8     9   ar
     5     9    10   ar
     6    10    11   ar
     7    11     1    1
     8     1     2   ar
     9     2     3   ar
    10     3     4   ar
    11     4     5   ar
    12     5    17    1
    13    17    18    1
    14    18    19    1
    15    19    20   ar
    16    20    21   ar
    17    21    22   ar
    18    22    23   ar
    19    23    24   ar
    20    24    25    1
    21    25    26    1
    22    26    27   ar
    23    26    28   ar
    24     5     6   ar
    25    11    12   ar
    26    12     7   ar
    27     6     1   ar
    28    24    19   ar
    29    13    15    1
    30    13    16    1
@<TRIPOS>MOLECULE
*****
 28 30 0 0 0
SMALL
GASTEIGER

@<TRIPOS>ATOM
      1 C         140.3699  143.2662  165.0541 C.ar    1  UNL1       -0.0002
      2 C         139.2445  143.9400  164.3266 C.ar    1  UNL1       -0.0000
      3 C         139.5385  145.0023  163.3091 C.ar    1  UNL1       -0.0002
      4 C         140.9581  145.3907  163.0193 C.ar    1  UNL1       -0.0007
      5 C         142.0835  144.7169  163.7469 C.ar    1  UNL1        0.0212
      6 C         141.7894  143.6547  164.7643 C.ar    1  UNL1       -0.0007
      7 C         138.9876  139.9300  166.7001 C.ar    1  UNL1       -0.0066
      8 C         139.4876  140.0795  168.1063 C.ar    1  UNL1       -0.0029
      9 C         140.2817  141.2912  168.4952 C.ar    1  UNL1       -0.0003
     10 C         140.5758  142.3534  167.4779 C.ar    1  UNL1       -0.0000
     11 C         140.0758  142.2040  166.0716 C.ar    1  UNL1       -0.0003
     12 C         139.2817  140.9923  165.6827 C.ar    1  UNL1       -0.0029
     13 N         137.2455  138.0960  167.2930 N.3     1  UNL1       -0.3175
     14 C         138.1935  138.7183  166.3112 C.3     1  UNL1        0.0922
     15 H         136.7937  137.2883  166.8642 H       1  UNL1        0.1192
     16 H         136.5372  138.7791  167.5614 H       1  UNL1        0.1192
     17 C         143.5031  145.1054  163.4571 C.3     1  UNL1        0.2320
     18 O         144.3266  144.2850  162.5090 O.3     1  UNL1       -0.4709
     19 C         144.4310  142.8005  162.6977 C.ar    1  UNL1        0.1354
     20 C         145.3046  142.2419  163.7815 C.ar    1  UNL1        0.0366
     21 C         145.4091  140.7574  163.9701 C.ar    1  UNL1        0.0031
     22 C         144.6398  139.8317  163.0750 C.ar    1  UNL1       -0.0001
     23 C         143.7661  140.3903  161.9912 C.ar    1  UNL1       -0.0009
     24 C         143.6617  141.8748  161.8025 C.ar    1  UNL1        0.0174
     25 C         142.7881  142.4334  160.7188 C.3     1  UNL1        0.0710
     26 C         141.2993  142.4683  160.8988 C.2     1  UNL1        0.0548
     27 O         140.4536  143.3116  159.9912 O.co2   1  UNL1       -0.5488
     28 O         140.6562  141.6598  161.9863 O.co2   1  UNL1       -0.5488
@<TRIPOS>UNITY_ATOM_ATTR
27 1
charge -1
@<TRIPOS>BOND
     1    13    14    1
     2    14     7    1
     3     7     8   ar
     4     8     9   ar
     5     9    10   ar
     6    10    11   ar
     7    11     1    1
     8     1     2   ar
     9     2     3   ar
    10     3     4   ar
    11     4     5   ar
    12     5    17    1
    13    17    18    1
    14    18    19    1
    15    19    20   ar
    16    20    21   ar
    17    21    22   ar
    18    22    23   ar
    19    23    24   ar
    20    24    25    1
    21    25    26    1
    22    26    27   ar
    23    26    28   ar
    24     5     6   ar
    25    11    12   ar
    26    12     7   ar
    27     6     1   ar
    28    24    19   ar
    29    13    15    1
    30    13    16    1
@<TRIPOS>MOLECULE
*****
 28 30 0 0 0
SMALL
GASTEIGER

@<TRIPOS>ATOM
      1 C         139.5834  141.2578  165.9633 C.ar    1  UNL1       -0.0002
      2 C         138.6573  140.3964  165.1570 C.ar    1  UNL1       -0.0000
      3 C         137.8224  141.0055  164.0698 C.ar    1  UNL1       -0.0002
      4 C         137.9138  142.4762  163.7889 C.ar    1  UNL1       -0.0007
      5 C         138.8400  143.3376  164.5953 C.ar    1  UNL1        0.0212
      6 C         139.6748  142.7284  165.6824 C.ar    1  UNL1       -0.0007
      7 C         140.7198  139.9603  169.5375 C.ar    1  UNL1       -0.0066
      8 C         142.0878  139.4303  169.2249 C.ar    1  UNL1       -0.0029
      9 C         142.6210  139.5095  167.8252 C.ar    1  UNL1       -0.0003
     10 C         141.7862  140.1187  166.7379 C.ar    1  UNL1       -0.0000
     11 C         140.4183  140.6486  167.0505 C.ar    1  UNL1       -0.0003
     12 C         139.8851  140.5694  168.4503 C.ar    1  UNL1       -0.0029
     13 N         140.8255  140.6861  172.0299 N.3     1  UNL1       -0.3175
     14 C         140.1866  139.8811  170.9373 C.3     1  UNL1        0.0922
     15 H         140.3391  140.5119  172.9094 H       1  UNL1        0.1192
     16 H         140.7673  141.6781  171.7998 H       1  UNL1        0.1192
     17 C         138.9313  144.8083  164.3144 C.3     1  UNL1        0.2320
     18 O         139.7246  145.2997  163.1399 O.3     1  UNL1       -0.4709
     19 C         141.1453  144.8551  162.9557 C.ar    1  UNL1        0.1354
     20 C         142.2214  145.3917  163.8525 C.ar    1  UNL1        0.0366
     21 C         143.6421  144.9471  163.6682 C.ar    1  UNL1        0.0031
     22 C         143.9868  143.9661  162.5872 C.ar    1  UNL1       -0.0001
     23 C         142.9107  143.4295  161.6903 C.ar    1  UNL1       -0.0009
     24 C         141.4900  143.8740  161.8746 C.ar    1  UNL1        0.0174
     25 C         140.4140  143.3375  160.9778 C.3     1  UNL1        0.0710
     26 C         140.1699  143.9681  159.6388 C.2     1  UNL1        0.0548
     27 O         139.8103  145.4216  159.5487 O.co2   1  UNL1       -0.5488
     28 O         140.2856  143.1453  158.3900 O.co2   1  UNL1       -0.5488
@<TRIPOS>UNITY_ATOM_ATTR
27 1
charge -1
@<TRIPOS>BOND
     1    13    14    1
     2    14     7    1
     3     7     8   ar
     4     8     9   ar
     5     9    10   ar
     6    10    11   ar
     7    11     1    1
     8     1     2   ar
     9     2     3   ar
    10     3     4   ar
    11     4     5   ar
    12     5    17    1
    13    17    18    1
    14    18    19    1
    15    19    20   ar
    16    20    21   ar
    17    21    22   ar
    18    22    23   ar
    19    23    24   ar
    20    24    25    1
    21    25    26    1
    22    26    27   ar
    23    26    28   ar
    24     5     6   ar
    25    11    12   ar
    26    12     7   ar
    27     6     1   ar
    28    24    19   ar
    29    13    15    1
    30    13    16    1
@<TRIPOS>MOLECULE
*****
 28 30 0 0 0
SMALL
GASTEIGER

@<TRIPOS>ATOM
      1 C         142.7548  140.1999  166.1705 C.ar    1  UNL1       -0.0002
      2 C         143.4733  141.2299  165.3502 C.ar    1  UNL1       -0.0000
      3 C         143.5963  141.0540  163.8656 C.ar    1  UNL1       -0.0002
      4 C         143.0009  139.8480  163.2014 C.ar    1  UNL1       -0.0007
      5 C         142.2824  138.8180  164.0217 C.ar    1  UNL1        0.0212
      6 C         142.1594  138.9940  165.5062 C.ar    1  UNL1       -0.0007
      7 C         142.4096  141.9289  169.7260 C.ar    1  UNL1       -0.0066
      8 C         142.3855  140.7278  170.6241 C.ar    1  UNL1       -0.0029
      9 C         142.4845  139.3507  170.0377 C.ar    1  UNL1       -0.0003
     10 C         142.6076  139.1747  168.5532 C.ar    1  UNL1       -0.0000
     11 C         142.6317  140.3758  167.6551 C.ar    1  UNL1       -0.0003
     12 C         142.5327  141.7529  168.2415 C.ar    1  UNL1       -0.0029
     13 N         143.4290  143.8448  171.1543 N.3     1  UNL1       -0.3175
     14 C         142.3106  143.3060  170.3124 C.3     1  UNL1        0.0922
     15 H         143.1952  144.7869  171.4676 H       1  UNL1        0.1192
     16 H         144.2866  143.8728  170.6029 H       1  UNL1        0.1192
     17 C         141.6870  137.6121  163.3575 C.3     1  UNL1        0.2320
     18 O         140.2430  137.6159  162.9513 O.3     1  UNL1       -0.4709
     19 C         139.4381  138.8774  163.0549 C.ar    1  UNL1        0.1354
     20 C         139.4420  139.8644  161.9253 C.ar    1  UNL1        0.0366
     21 C         138.6371  141.1259  162.0289 C.ar    1  UNL1        0.0031
     22 C         137.8283  141.4005  163.2619 C.ar    1  UNL1       -0.0001
     23 C         137.8244  140.4135  164.3915 C.ar    1  UNL1       -0.0009
     24 C         138.6293  139.1520  164.2880 C.ar    1  UNL1        0.0174
     25 C         138.6254  138.1650  165.4175 C.3     1  UNL1        0.0710
     26 C         138.2011  138.5974  166.7898 C.2     1  UNL1        0.0548
     27 O         136.9701  138.0101  167.4140 O.co2   1  UNL1       -0.5488
     28 O         139.0079  139.6169  167.5379 O.co2   1  UNL1       -0.5488
@<TRIPOS>UNITY_ATOM_ATTR
27 1
charge -1
@<TRIPOS>BOND
     1    13    14    1
     2    14     7    1
     3     7     8   ar
     4     8     9   ar
     5     9    10   ar
     6    10    11   ar
     7    11     1    1
     8     1     2   ar
     9     2     3   ar
    10     3     4   ar
    11     4     5   ar
    12     5    17    1
    13    17    18    1
    14    18    19    1
    15    19    20   ar
    16    20    21   ar
    17    21    22   ar
    18    22    23   ar
    19    23    24   ar
    20    24    25    1
    21    25    26    1
    22    26    27   ar
    23    26    28   ar
    24     5     6   ar
    25    11    12   ar
    26    12     7   ar
    27     6     1   ar
    28    24    19   ar
    29    13    15    1
    30    13    16    1
@<TRIPOS>MOLECULE
*****
 28 30 0 0 0
SMALL
GASTEIGER

@<TRIPOS>ATOM
      1 C         141.0778  142.7957  165.9137 C.ar    1  UNL1       -0.0002
      2 C         140.0898  143.7433  165.3005 C.ar    1  UNL1       -0.0000
      3 C         140.4980  144.6085  164.1451 C.ar    1  UNL1       -0.0002
      4 C         141.8941  144.5259  163.6028 C.ar    1  UNL1       -0.0007
      5 C         142.8821  143.5782  164.2160 C.ar    1  UNL1        0.0212
      6 C         142.4739  142.7132  165.3714 C.ar    1  UNL1       -0.0007
      7 C         140.7998  141.3438  169.5967 C.ar    1  UNL1       -0.0066
      8 C         139.8533  140.2005  169.3800 C.ar    1  UNL1       -0.0029
      9 C         139.3150  139.9223  168.0079 C.ar    1  UNL1       -0.0003
     10 C         139.7231  140.7873  166.8524 C.ar    1  UNL1       -0.0000
     11 C         140.6696  141.9306  167.0691 C.ar    1  UNL1       -0.0003
     12 C         141.2079  142.2088  168.4413 C.ar    1  UNL1       -0.0029
     13 N         140.4378  142.1862  172.0276 N.3     1  UNL1       -0.3175
     14 C         141.3381  141.6221  170.9688 C.3     1  UNL1        0.0922
     15 H         140.9655  142.3112  172.8915 H       1  UNL1        0.1192
     16 H         139.6628  141.5437  172.1926 H       1  UNL1        0.1192
     17 C         144.2782  143.4956  163.6738 C.3     1  UNL1        0.2320
     18 O         144.9981  142.1798  163.6530 O.3     1  UNL1       -0.4709
     19 C         144.5563  141.0980  162.7126 C.ar    1  UNL1        0.1354
     20 C         144.2111  141.4339  161.2921 C.ar    1  UNL1        0.0366
     21 C         143.7693  140.3521  160.3516 C.ar    1  UNL1        0.0031
     22 C         143.6728  138.9343  160.8317 C.ar    1  UNL1       -0.0001
     23 C         144.0181  138.5982  162.2522 C.ar    1  UNL1       -0.0009
     24 C         144.4599  139.6801  163.1927 C.ar    1  UNL1        0.0174
     25 C         144.8051  139.3441  164.6132 C.3     1  UNL1        0.0710
     26 C         143.7495  138.8102  165.5355 C.2     1  UNL1        0.0548
     27 O         142.3029  139.1050  165.2702 O.co2   1  UNL1       -0.5488
     28 O         144.1405  137.9814  166.7230 O.co2   1  UNL1       -0.5488
@<TRIPOS>UNITY_ATOM_ATTR
27 1
charge -1
@<TRIPOS>BOND
     1    13    14    1
     2    14     7    1
     3     7     8   ar
     4     8     9   ar
     5     9    10   ar
     6    10    11   ar
     7    11     1    1
     8     1     2   ar
     9     2     3   ar
    10     3     4   ar
    11     4     5   ar
    12     5    17    1
    13    17    18    1
    14    18    19    1
    15    19    20   ar
    16    20    21   ar
    17    21    22   ar
    18    22    23   ar
    19    23    24   ar
    20    24    25    1
    21    25    26    1
    22    26    27   ar
    23    26    28   ar
    24     5     6   ar
    25    11    12   ar
    26    12     7   ar
    27     6     1   ar
    28    24    19   ar
    29    13    15    1
    30    13    16    1
@<TRIPOS>MOLECULE
*****
 28 30 0 0 0
SMALL
GASTEIGER

@<TRIPOS>ATOM
      1 C         140.5829  143.3041  165.4215 C.ar    1  UNL1       -0.0002
      2 C         139.4626  143.9226  164.6388 C.ar    1  UNL1       -0.0000
      3 C         139.7655  144.8785  163.5232 C.ar    1  UNL1       -0.0002
      4 C         141.1887  145.2159  163.1903 C.ar    1  UNL1       -0.0007
      5 C         142.3089  144.5974  163.9731 C.ar    1  UNL1        0.0212
      6 C         142.0060  143.6416  165.0886 C.ar    1  UNL1       -0.0007
      7 C         140.1522  141.8240  169.0785 C.ar    1  UNL1       -0.0066
      8 C         139.6742  140.4365  168.7683 C.ar    1  UNL1       -0.0029
      9 C         139.4992  140.0048  167.3424 C.ar    1  UNL1       -0.0003
     10 C         139.8020  140.9607  166.2268 C.ar    1  UNL1       -0.0000
     11 C         140.2800  142.3482  166.5371 C.ar    1  UNL1       -0.0003
     12 C         140.4550  142.7799  167.9629 C.ar    1  UNL1       -0.0029
     13 N         139.3672  143.2328  171.1154 N.3     1  UNL1       -0.3175
     14 C         140.3272  142.2557  170.5044 C.3     1  UNL1        0.0922
     15 H         139.6345  143.4122  172.0833 H       1  UNL1        0.1192
     16 H         138.4243  142.8446  171.0895 H       1  UNL1        0.1192
     17 C         143.7321  144.9349  163.6402 C.3     1  UNL1        0.2320
     18 O         144.5070  144.0667  162.6936 O.3     1  UNL1       -0.4709
     19 C         144.4726  142.5748  162.8453 C.ar    1  UNL1        0.1354
     20 C         145.3325  141.9058  163.8763 C.ar    1  UNL1        0.0366
     21 C         145.2981  140.4138  164.0280 C.ar    1  UNL1        0.0031
     22 C         144.4039  139.5910  163.1487 C.ar    1  UNL1       -0.0001
     23 C         143.5440  140.2600  162.1176 C.ar    1  UNL1       -0.0009
     24 C         143.5784  141.7519  161.9659 C.ar    1  UNL1        0.0174
     25 C         142.7185  142.4210  160.9350 C.3     1  UNL1        0.0710
     26 C         143.3022  142.8089  159.6087 C.2     1  UNL1        0.0548
     27 O         142.4506  143.5063  158.5896 O.co2   1  UNL1       -0.5488
     28 O         144.7374  142.4993  159.3015 O.co2   1  UNL1       -0.5488
@<TRIPOS>UNITY_ATOM_ATTR
27 1
charge -1
@<TRIPOS>BOND
     1    13    14    1
     2    14     7    1
     3     7     8   ar
     4     8     9   ar
     5     9    10   ar
     6    10    11   ar
     7    11     1    1
     8     1     2   ar
     9     2     3   ar
    10     3     4   ar
    11     4     5   ar
    12     5    17    1
    13    17    18    1
    14    18    19    1
    15    19    20   ar
    16    20    21   ar
    17    21    22   ar
    18    22    23   ar
    19    23    24   ar
    20    24    25    1
    21    25    26    1
    22    26    27   ar
    23    26    28   ar
    24     5     6   ar
    25    11    12   ar
    26    12     7   ar
    27     6     1   ar
    28    24    19   ar
    29    13    15    1
    30    13    16    1
