@<TRIPOS>MOLECULE
*****
 28 30 0 0 0
SMALL
GASTEIGER

@<TRIPOS>ATOM
      1 C         142.8656  138.4619  162.6749 C.ar    1  UNL1        0.0749
      2 C         144.1080  139.0533  163.2720 C.ar    1  UNL1        0.1097
      3 N         144.2755  139.0995  164.7619 N.ar    1  UNL1       -0.2283
      4 C         143.2005  138.5544  165.6547 C.ar    1  UNL1        0.1345
      5 C         141.9580  137.9631  165.0577 C.ar    1  UNL1        0.0494
      6 C         141.7906  137.9168  163.5677 C.ar    1  UNL1        0.0568
      7 C         142.5307  138.3694  159.6951 C.1     1  UNL1       -0.0091
      8 C         142.6981  138.4157  161.1850 C.1     1  UNL1       -0.0484
      9 N         143.3679  138.6006  167.1447 N.pl3   1  UNL1       -0.2821
     10 H         144.0206  138.0097  167.5852 H       1  UNL1        0.1551
     11 C         142.5410  139.5472  167.9633 C.ar    1  UNL1        0.1527
     12 C         141.3321  140.2002  167.3614 C.ar    1  UNL1        0.1340
     13 N         140.5051  141.1467  168.1800 N.ar    1  UNL1       -0.2290
     14 C         140.8870  141.4403  169.6006 C.ar    1  UNL1        0.1683
     15 C         142.0958  140.7873  170.2025 C.ar    1  UNL1        0.1299
     16 N         142.9228  139.8407  169.3839 N.ar    1  UNL1       -0.2251
     17 C         140.0600  142.3868  170.4192 C.1     1  UNL1        0.1214
     18 N         139.2330  143.3334  171.2378 N.1     1  UNL1       -0.1892
     19 N         140.5480  137.3254  162.9707 N.pl3   1  UNL1       -0.3301
     20 H         140.6108  136.7462  162.1771 H       1  UNL1        0.1469
     21 C         139.2099  137.6166  163.5827 C.3     1  UNL1        0.1185
     22 C         138.5945  138.9759  163.4287 C.3     1  UNL1        0.1503
     23 C         137.8412  139.3209  162.1783 C.3     1  UNL1        0.1003
     24 N         137.2258  140.6801  162.0243 N.3     1  UNL1       -0.2933
     25 C         137.3637  141.6944  163.1207 C.3     1  UNL1        0.1011
     26 C         138.1170  141.3494  164.3711 C.3     1  UNL1        0.1592
     27 O         138.7324  139.9902  164.5251 O.3     1  UNL1       -0.3516
     28 H         136.2264  140.5362  161.8803 H       1  UNL1        0.1234
@<TRIPOS>BOND
     1     7     8    3
     2     8     1    1
     3     1     2   ar
     4     2     3   ar
     5     3     4   ar
     6     4     9    1
     7     9    11    1
     8    11    12   ar
     9    12    13   ar
    10    13    14   ar
    11    14    17    1
    12    17    18    3
    13    14    15   ar
    14    15    16   ar
    15     4     5   ar
    16     5     6   ar
    17     6    19    1
    18    19    21    1
    19    22    21    1
    20    22    23    1
    21    23    24    1
    22    24    25    1
    23    25    26    1
    24    26    27    1
    25     6     1   ar
    26    27    22    1
    27    16    11   ar
    28     9    10    1
    29    19    20    1
    30    24    28    1
@<TRIPOS>MOLECULE
*****
 28 30 0 0 0
SMALL
GASTEIGER

@<TRIPOS>ATOM
      1 C         138.9292  140.6872  165.6385 C.ar    1  UNL1        0.0749
      2 C         139.9430  141.4367  166.4512 C.ar    1  UNL1        0.1097
      3 N         140.5032  142.7318  165.9422 N.ar    1  UNL1       -0.2283
      4 C         140.0497  143.2772  164.6206 C.ar    1  UNL1        0.1345
      5 C         139.0359  142.5277  163.8079 C.ar    1  UNL1        0.0494
      6 C         138.4757  141.2327  164.3169 C.ar    1  UNL1        0.0568
      7 C         137.8087  138.0972  166.6565 C.1     1  UNL1       -0.0091
      8 C         138.3690  139.3922  166.1475 C.1     1  UNL1       -0.0484
      9 N         140.6099  144.5722  164.1116 N.pl3   1  UNL1       -0.2821
     10 H         140.9858  145.2278  164.7426 H       1  UNL1        0.1551
     11 C         140.5975  144.8684  162.6412 C.ar    1  UNL1        0.1527
     12 C         139.6051  145.8439  162.0810 C.ar    1  UNL1        0.1340
     13 N         139.5927  146.1401  160.6106 N.ar    1  UNL1       -0.2290
     14 C         140.5726  145.4608  159.7004 C.ar    1  UNL1        0.1683
     15 C         141.5649  144.4854  160.2605 C.ar    1  UNL1        0.1299
     16 N         141.5773  144.1892  161.7310 N.ar    1  UNL1       -0.2251
     17 C         140.5601  145.7571  158.2299 C.1     1  UNL1        0.1214
     18 N         140.5476  146.0533  156.7595 N.1     1  UNL1       -0.1892
     19 N         137.4618  140.4831  163.5042 N.pl3   1  UNL1       -0.3301
     20 H         136.5031  140.5718  163.7098 H       1  UNL1        0.1469
     21 C         137.9087  139.5985  162.3783 C.3     1  UNL1        0.1185
     22 C         139.2942  139.0236  162.3807 C.3     1  UNL1        0.1503
     23 C         139.5316  137.6412  162.9125 C.3     1  UNL1        0.1003
     24 N         140.9170  137.0663  162.9149 N.3     1  UNL1       -0.2933
     25 C         142.0650  137.8736  162.3856 C.3     1  UNL1        0.1011
     26 C         141.8276  139.2559  161.8538 C.3     1  UNL1        0.1592
     27 O         140.4422  139.8309  161.8514 O.3     1  UNL1       -0.3516
     28 H         140.8809  136.2089  162.3635 H       1  UNL1        0.1234
@<TRIPOS>BOND
     1     7     8    3
     2     8     1    1
     3     1     2   ar
     4     2     3   ar
     5     3     4   ar
     6     4     9    1
     7     9    11    1
     8    11    12   ar
     9    12    13   ar
    10    13    14   ar
    11    14    17    1
    12    17    18    3
    13    14    15   ar
    14    15    16   ar
    15     4     5   ar
    16     5     6   ar
    17     6    19    1
    18    19    21    1
    19    22    21    1
    20    22    23    1
    21    23    24    1
    22    24    25    1
    23    25    26    1
    24    26    27    1
    25     6     1   ar
    26    27    22    1
    27    16    11   ar
    28     9    10    1
    29    19    20    1
    30    24    28    1
@<TRIPOS>MOLECULE
*****
 28 30 0 0 0
SMALL
GASTEIGER

@<TRIPOS>ATOM
      1 C         138.9962  138.8411  162.8549 C.ar    1  UNL1        0.0749
      2 C         139.6869  137.8335  163.7253 C.ar    1  UNL1        0.1097
      3 N         139.5909  137.9409  165.2183 N.ar    1  UNL1       -0.2283
      4 C         138.8041  139.0559  165.8410 C.ar    1  UNL1        0.1345
      5 C         138.1133  140.0634  164.9706 C.ar    1  UNL1        0.0494
      6 C         138.2094  139.9560  163.4776 C.ar    1  UNL1        0.0568
      7 C         139.1883  138.6263  159.8688 C.1     1  UNL1       -0.0091
      8 C         139.0922  138.7337  161.3618 C.1     1  UNL1       -0.0484
      9 N         138.7080  139.1632  167.3341 N.pl3   1  UNL1       -0.2821
     10 H         138.0497  138.6205  167.8253 H       1  UNL1        0.1551
     11 C         139.6150  140.0975  168.0787 C.ar    1  UNL1        0.1527
     12 C         140.2142  141.2798  167.3764 C.ar    1  UNL1        0.1340
     13 N         141.1212  142.2140  168.1210 N.ar    1  UNL1       -0.2290
     14 C         141.4290  141.9661  169.5680 C.ar    1  UNL1        0.1683
     15 C         140.8298  140.7839  170.2703 C.ar    1  UNL1        0.1299
     16 N         139.9228  139.8496  169.5257 N.ar    1  UNL1       -0.2251
     17 C         142.3360  142.9004  170.3126 C.1     1  UNL1        0.1214
     18 N         143.2430  143.8347  171.0572 N.1     1  UNL1       -0.1892
     19 N         137.5185  140.9637  162.6072 N.pl3   1  UNL1       -0.3301
     20 H         137.1887  140.7017  161.7173 H       1  UNL1        0.1469
     21 C         137.3302  142.3704  163.0926 C.3     1  UNL1        0.1185
     22 C         138.3287  143.4292  162.7292 C.3     1  UNL1        0.1503
     23 C         138.8148  144.3914  163.7722 C.3     1  UNL1        0.1003
     24 N         139.8132  145.4501  163.4089 N.3     1  UNL1       -0.2933
     25 C         140.3256  145.5467  162.0025 C.3     1  UNL1        0.1011
     26 C         139.8396  144.5845  160.9594 C.3     1  UNL1        0.1592
     27 O         138.8412  143.5258  161.3227 O.3     1  UNL1       -0.3516
     28 H         140.6255  145.3073  164.0090 H       1  UNL1        0.1234
@<TRIPOS>BOND
     1     7     8    3
     2     8     1    1
     3     1     2   ar
     4     2     3   ar
     5     3     4   ar
     6     4     9    1
     7     9    11    1
     8    11    12   ar
     9    12    13   ar
    10    13    14   ar
    11    14    17    1
    12    17    18    3
    13    14    15   ar
    14    15    16   ar
    15     4     5   ar
    16     5     6   ar
    17     6    19    1
    18    19    21    1
    19    22    21    1
    20    22    23    1
    21    23    24    1
    22    24    25    1
    23    25    26    1
    24    26    27    1
    25     6     1   ar
    26    27    22    1
    27    16    11   ar
    28     9    10    1
    29    19    20    1
    30    24    28    1
@<TRIPOS>MOLECULE
*****
 28 30 0 0 0
SMALL
GASTEIGER

@<TRIPOS>ATOM
      1 C         140.6892  141.4517  168.3557 C.ar    1  UNL1        0.0749
      2 C         139.7734  140.4127  168.9316 C.ar    1  UNL1        0.1097
      3 N         138.9734  139.5299  168.0203 N.ar    1  UNL1       -0.2283
      4 C         139.0892  139.6860  166.5330 C.ar    1  UNL1        0.1345
      5 C         140.0050  140.7250  165.9570 C.ar    1  UNL1        0.0494
      6 C         140.8050  141.6078  166.8683 C.ar    1  UNL1        0.0568
      7 C         142.2892  143.2174  170.1784 C.1     1  UNL1       -0.0091
      8 C         141.4892  142.3346  169.2670 C.1     1  UNL1       -0.0484
      9 N         138.2891  138.8032  165.6216 N.pl3   1  UNL1       -0.2821
     10 H         137.5374  138.2781  165.9800 H       1  UNL1        0.1551
     11 C         138.6344  138.7204  164.1643 C.ar    1  UNL1        0.1527
     12 C         139.5939  137.6744  163.6790 C.ar    1  UNL1        0.1340
     13 N         139.9391  137.5916  162.2217 N.ar    1  UNL1       -0.2290
     14 C         139.3250  138.5548  161.2495 C.ar    1  UNL1        0.1683
     15 C         138.3656  139.6008  161.7347 C.ar    1  UNL1        0.1299
     16 N         138.0203  139.6836  163.1921 N.ar    1  UNL1       -0.2251
     17 C         139.6703  138.4720  159.7921 C.1     1  UNL1        0.1214
     18 N         140.0156  138.3892  158.3348 N.1     1  UNL1       -0.1892
     19 N         141.7208  142.6468  166.2923 N.pl3   1  UNL1       -0.3301
     20 H         142.1810  143.2819  166.8875 H       1  UNL1        0.1469
     21 C         141.9355  142.7183  164.8095 C.3     1  UNL1        0.1185
     22 C         141.1527  143.6965  163.9845 C.3     1  UNL1        0.1503
     23 C         141.7239  145.0506  163.6845 C.3     1  UNL1        0.1003
     24 N         140.9412  146.0288  162.8596 N.3     1  UNL1       -0.2933
     25 C         139.5873  145.6528  162.3348 C.3     1  UNL1        0.1011
     26 C         139.0161  144.2986  162.6348 C.3     1  UNL1        0.1592
     27 O         139.7988  143.3205  163.4597 O.3     1  UNL1       -0.3516
     28 H         141.5174  146.2586  162.0500 H       1  UNL1        0.1234
@<TRIPOS>BOND
     1     7     8    3
     2     8     1    1
     3     1     2   ar
     4     2     3   ar
     5     3     4   ar
     6     4     9    1
     7     9    11    1
     8    11    12   ar
     9    12    13   ar
    10    13    14   ar
    11    14    17    1
    12    17    18    3
    13    14    15   ar
    14    15    16   ar
    15     4     5   ar
    16     5     6   ar
    17     6    19    1
    18    19    21    1
    19    22    21    1
    20    22    23    1
    21    23    24    1
    22    24    25    1
    23    25    26    1
    24    26    27    1
    25     6     1   ar
    26    27    22    1
    27    16    11   ar
    28     9    10    1
    29    19    20    1
    30    24    28    1
@<TRIPOS>MOLECULE
*****
 28 30 0 0 0
SMALL
GASTEIGER

@<TRIPOS>ATOM
      1 C         138.9522  141.5207  160.6828 C.ar    1  UNL1        0.0749
      2 C         139.5079  140.1307  160.5873 C.ar    1  UNL1        0.1097
      3 N         139.3465  139.1780  161.7347 N.ar    1  UNL1       -0.2283
      4 C         138.6295  139.6154  162.9775 C.ar    1  UNL1        0.1345
      5 C         138.0738  141.0054  163.0729 C.ar    1  UNL1        0.0494
      6 C         138.2352  141.9580  161.9256 C.ar    1  UNL1        0.0568
      7 C         139.2750  143.4259  158.3881 C.1     1  UNL1       -0.0091
      8 C         139.1136  142.4733  159.5354 C.1     1  UNL1       -0.0484
      9 N         138.4681  138.6627  164.1248 N.pl3   1  UNL1       -0.2821
     10 H         138.1391  137.7490  163.9634 H       1  UNL1        0.1551
     11 C         138.8081  139.1022  165.5181 C.ar    1  UNL1        0.1527
     12 C         137.8985  138.7515  166.6582 C.ar    1  UNL1        0.1340
     13 N         138.2385  139.1910  168.0514 N.ar    1  UNL1       -0.2290
     14 C         139.4880  139.9813  168.3047 C.ar    1  UNL1        0.1683
     15 C         140.3975  140.3321  167.1647 C.ar    1  UNL1        0.1299
     16 N         140.0576  139.8925  165.7714 N.ar    1  UNL1       -0.2251
     17 C         139.8279  140.4208  169.6981 C.1     1  UNL1        0.1214
     18 N         140.1678  140.8603  171.0913 N.1     1  UNL1       -0.1892
     19 N         137.6795  143.3481  162.0211 N.pl3   1  UNL1       -0.3301
     20 H         136.8838  143.5971  161.4976 H       1  UNL1        0.1469
     21 C         138.3363  144.3586  162.9140 C.3     1  UNL1        0.1185
     22 C         139.8309  144.4840  162.9327 C.3     1  UNL1        0.1503
     23 C         140.5503  145.0572  161.7478 C.3     1  UNL1        0.1003
     24 N         142.0449  145.1826  161.7664 N.3     1  UNL1       -0.2933
     25 C         142.8201  144.7349  162.9700 C.3     1  UNL1        0.1011
     26 C         142.1008  144.1617  164.1549 C.3     1  UNL1        0.1592
     27 O         140.6062  144.0363  164.1362 O.3     1  UNL1       -0.3516
     28 H         142.2592  146.1703  161.6288 H       1  UNL1        0.1234
@<TRIPOS>BOND
     1     7     8    3
     2     8     1    1
     3     1     2   ar
     4     2     3   ar
     5     3     4   ar
     6     4     9    1
     7     9    11    1
     8    11    12   ar
     9    12    13   ar
    10    13    14   ar
    11    14    17    1
    12    17    18    3
    13    14    15   ar
    14    15    16   ar
    15     4     5   ar
    16     5     6   ar
    17     6    19    1
    18    19    21    1
    19    22    21    1
    20    22    23    1
    21    23    24    1
    22    24    25    1
    23    25    26    1
    24    26    27    1
    25     6     1   ar
    26    27    22    1
    27    16    11   ar
    28     9    10    1
    29    19    20    1
    30    24    28    1
@<TRIPOS>MOLECULE
*****
 28 30 0 0 0
SMALL
GASTEIGER

@<TRIPOS>ATOM
      1 C         139.0190  140.5694  165.7047 C.ar    1  UNL1        0.0749
      2 C         138.2317  141.5248  164.8578 C.ar    1  UNL1        0.1097
      3 N         138.8805  142.7707  164.3317 N.ar    1  UNL1       -0.2283
      4 C         140.3167  143.0611  164.6525 C.ar    1  UNL1        0.1345
      5 C         141.1041  142.1057  165.4993 C.ar    1  UNL1        0.0494
      6 C         140.4552  140.8598  166.0254 C.ar    1  UNL1        0.0568
      7 C         137.7213  138.0777  166.7569 C.1     1  UNL1       -0.0091
      8 C         138.3701  139.3235  166.2308 C.1     1  UNL1       -0.0484
      9 N         140.9656  144.3070  164.1264 N.pl3   1  UNL1       -0.2821
     10 H         141.4899  144.8814  164.7299 H       1  UNL1        0.1551
     11 C         140.8156  144.6776  162.6807 C.ar    1  UNL1        0.1527
     12 C         139.7718  145.6719  162.2657 C.ar    1  UNL1        0.1340
     13 N         139.6217  146.0425  160.8200 N.ar    1  UNL1       -0.2290
     14 C         140.5154  145.4190  159.7892 C.ar    1  UNL1        0.1683
     15 C         141.5592  144.4248  160.2041 C.ar    1  UNL1        0.1299
     16 N         141.7092  144.0541  161.6499 N.ar    1  UNL1       -0.2251
     17 C         140.3653  145.7897  158.3435 C.1     1  UNL1        0.1214
     18 N         140.2152  146.1603  156.8978 N.1     1  UNL1       -0.1892
     19 N         141.2426  139.9044  166.8723 N.pl3   1  UNL1       -0.3301
     20 H         141.0896  139.8668  167.8441 H       1  UNL1        0.1469
     21 C         142.2631  139.0061  166.2385 C.3     1  UNL1        0.1185
     22 C         142.1003  138.5762  164.8106 C.3     1  UNL1        0.1503
     23 C         141.3107  137.3433  164.4840 C.3     1  UNL1        0.1003
     24 N         141.1479  136.9134  163.0562 N.3     1  UNL1       -0.2933
     25 C         141.7746  137.7162  161.9551 C.3     1  UNL1        0.1011
     26 C         142.5642  138.9491  162.2817 C.3     1  UNL1        0.1592
     27 O         142.7270  139.3790  163.7095 O.3     1  UNL1       -0.3516
     28 H         140.1456  136.8885  162.8687 H       1  UNL1        0.1234
@<TRIPOS>BOND
     1     7     8    3
     2     8     1    1
     3     1     2   ar
     4     2     3   ar
     5     3     4   ar
     6     4     9    1
     7     9    11    1
     8    11    12   ar
     9    12    13   ar
    10    13    14   ar
    11    14    17    1
    12    17    18    3
    13    14    15   ar
    14    15    16   ar
    15     4     5   ar
    16     5     6   ar
    17     6    19    1
    18    19    21    1
    19    22    21    1
    20    22    23    1
    21    23    24    1
    22    24    25    1
    23    25    26    1
    24    26    27    1
    25     6     1   ar
    26    27    22    1
    27    16    11   ar
    28     9    10    1
    29    19    20    1
    30    24    28    1
@<TRIPOS>MOLECULE
*****
 28 30 0 0 0
SMALL
GASTEIGER

@<TRIPOS>ATOM
      1 C         141.8420  141.0042  168.3855 C.ar    1  UNL1        0.0749
      2 C         140.5926  140.5774  169.0972 C.ar    1  UNL1        0.1097
      3 N         139.5058  139.8682  168.3448 N.ar    1  UNL1       -0.2283
      4 C         139.6686  139.5859  166.8807 C.ar    1  UNL1        0.1345
      5 C         140.9180  140.0127  166.1689 C.ar    1  UNL1        0.0494
      6 C         142.0047  140.7219  166.9213 C.ar    1  UNL1        0.0568
      7 C         144.0155  142.4226  169.8902 C.1     1  UNL1       -0.0091
      8 C         142.9288  141.7134  169.1378 C.1     1  UNL1       -0.0484
      9 N         138.5818  138.8767  166.1283 N.pl3   1  UNL1       -0.2821
     10 H         137.9893  138.2458  166.5975 H       1  UNL1        0.1551
     11 C         138.3980  139.1286  164.6612 C.ar    1  UNL1        0.1527
     12 C         138.7492  138.0616  163.6671 C.ar    1  UNL1        0.1340
     13 N         138.5653  138.3135  162.1999 N.ar    1  UNL1       -0.2290
     14 C         138.0302  139.6325  161.7267 C.ar    1  UNL1        0.1683
     15 C         137.6790  140.6996  162.7207 C.ar    1  UNL1        0.1299
     16 N         137.8628  140.4476  164.1880 N.ar    1  UNL1       -0.2251
     17 C         137.8463  139.8845  160.2594 C.1     1  UNL1        0.1214
     18 N         137.6624  140.1364  158.7923 N.1     1  UNL1       -0.1892
     19 N         143.2542  141.1487  166.2095 N.pl3   1  UNL1       -0.3301
     20 H         144.0529  140.5733  166.2290 H       1  UNL1        0.1469
     21 C         143.2869  142.4521  165.4679 C.3     1  UNL1        0.1185
     22 C         143.8348  142.5077  164.0726 C.3     1  UNL1        0.1503
     23 C         145.2239  142.0159  163.7922 C.3     1  UNL1        0.1003
     24 N         145.7719  142.0714  162.3970 N.3     1  UNL1       -0.2933
     25 C         144.9308  142.6187  161.2822 C.3     1  UNL1        0.1011
     26 C         143.5417  143.1105  161.5626 C.3     1  UNL1        0.1592
     27 O         142.9937  143.0550  162.9577 O.3     1  UNL1       -0.3516
     28 H         146.0173  141.1156  162.1388 H       1  UNL1        0.1234
@<TRIPOS>BOND
     1     7     8    3
     2     8     1    1
     3     1     2   ar
     4     2     3   ar
     5     3     4   ar
     6     4     9    1
     7     9    11    1
     8    11    12   ar
     9    12    13   ar
    10    13    14   ar
    11    14    17    1
    12    17    18    3
    13    14    15   ar
    14    15    16   ar
    15     4     5   ar
    16     5     6   ar
    17     6    19    1
    18    19    21    1
    19    22    21    1
    20    22    23    1
    21    23    24    1
    22    24    25    1
    23    25    26    1
    24    26    27    1
    25     6     1   ar
    26    27    22    1
    27    16    11   ar
    28     9    10    1
    29    19    20    1
    30    24    28    1
@<TRIPOS>MOLECULE
*****
 28 30 0 0 0
SMALL
GASTEIGER

@<TRIPOS>ATOM
      1 C         138.2132  143.0985  163.8914 C.ar    1  UNL1        0.0749
      2 C         137.9808  141.6652  164.2679 C.ar    1  UNL1        0.1097
      3 N         137.7836  140.6315  163.1989 N.ar    1  UNL1       -0.2283
      4 C         137.8188  141.0311  161.7536 C.ar    1  UNL1        0.1345
      5 C         138.0512  142.4644  161.3772 C.ar    1  UNL1        0.0494
      6 C         138.2483  143.4981  162.4461 C.ar    1  UNL1        0.0568
      7 C         138.6075  145.1659  166.0293 C.1     1  UNL1       -0.0091
      8 C         138.4103  144.1322  164.9604 C.1     1  UNL1       -0.0484
      9 N         137.6216  139.9974  160.6847 N.pl3   1  UNL1       -0.2821
     10 H         136.7216  139.6417  160.5039 H       1  UNL1        0.1551
     11 C         138.7957  139.5057  159.8911 C.ar    1  UNL1        0.1527
     12 C         140.0253  139.0152  160.5965 C.ar    1  UNL1        0.1340
     13 N         141.1993  138.5235  159.8030 N.ar    1  UNL1       -0.2290
     14 C         141.1439  138.5223  158.3040 C.ar    1  UNL1        0.1683
     15 C         139.9144  139.0128  157.5986 C.ar    1  UNL1        0.1299
     16 N         138.7403  139.5046  158.3921 N.ar    1  UNL1       -0.2251
     17 C         142.3181  138.0306  157.5105 C.1     1  UNL1        0.1214
     18 N         143.4921  137.5389  156.7169 N.1     1  UNL1       -0.1892
     19 N         138.4807  144.9314  162.0696 N.pl3   1  UNL1       -0.3301
     20 H         137.8233  145.6194  162.3220 H       1  UNL1        0.1469
     21 C         139.7146  145.3164  161.3086 C.3     1  UNL1        0.1185
     22 C         141.0697  144.9838  161.8591 C.3     1  UNL1        0.1503
     23 C         142.0567  144.2301  161.0178 C.3     1  UNL1        0.1003
     24 N         143.4118  143.8975  161.5683 N.3     1  UNL1       -0.2933
     25 C         143.7799  144.3185  162.9601 C.3     1  UNL1        0.1011
     26 C         142.7928  145.0722  163.8014 C.3     1  UNL1        0.1592
     27 O         141.4378  145.4048  163.2509 O.3     1  UNL1       -0.3516
     28 H         144.0962  144.3212  160.9418 H       1  UNL1        0.1234
@<TRIPOS>BOND
     1     7     8    3
     2     8     1    1
     3     1     2   ar
     4     2     3   ar
     5     3     4   ar
     6     4     9    1
     7     9    11    1
     8    11    12   ar
     9    12    13   ar
    10    13    14   ar
    11    14    17    1
    12    17    18    3
    13    14    15   ar
    14    15    16   ar
    15     4     5   ar
    16     5     6   ar
    17     6    19    1
    18    19    21    1
    19    22    21    1
    20    22    23    1
    21    23    24    1
    22    24    25    1
    23    25    26    1
    24    26    27    1
    25     6     1   ar
    26    27    22    1
    27    16    11   ar
    28     9    10    1
    29    19    20    1
    30    24    28    1
@<TRIPOS>MOLECULE
*****
 28 30 0 0 0
SMALL
GASTEIGER

@<TRIPOS>ATOM
      1 C         139.0686  140.5148  165.6558 C.ar    1  UNL1        0.0749
      2 C         138.2690  141.5285  164.8923 C.ar    1  UNL1        0.1097
      3 N         138.9360  142.7599  164.3549 N.ar    1  UNL1       -0.2283
      4 C         140.4028  142.9775  164.5810 C.ar    1  UNL1        0.1345
      5 C         141.2025  141.9639  165.3445 C.ar    1  UNL1        0.0494
      6 C         140.5354  140.7325  165.8819 C.ar    1  UNL1        0.0568
      7 C         137.7345  138.0522  166.7306 C.1     1  UNL1       -0.0091
      8 C         138.4015  139.2835  166.1932 C.1     1  UNL1       -0.0484
      9 N         141.0699  144.2089  164.0436 N.pl3   1  UNL1       -0.2821
     10 H         141.6339  144.7602  164.6329 H       1  UNL1        0.1551
     11 C         140.8777  144.6003  162.6084 C.ar    1  UNL1        0.1527
     12 C         139.8717  145.6523  162.2461 C.ar    1  UNL1        0.1340
     13 N         139.6795  146.0437  160.8109 N.ar    1  UNL1       -0.2290
     14 C         140.4934  145.3831  159.7380 C.ar    1  UNL1        0.1683
     15 C         141.4994  144.3311  160.1002 C.ar    1  UNL1        0.1299
     16 N         141.6916  143.9397  161.5354 N.ar    1  UNL1       -0.2251
     17 C         140.3011  145.7745  158.3027 C.1     1  UNL1        0.1214
     18 N         140.1090  146.1660  156.8675 N.1     1  UNL1       -0.1892
     19 N         141.3352  139.7188  166.6454 N.pl3   1  UNL1       -0.3301
     20 H         141.4819  138.8216  166.2675 H       1  UNL1        0.1469
     21 C         141.9113  140.0721  167.9845 C.3     1  UNL1        0.1185
     22 C         141.1973  141.0455  168.8749 C.3     1  UNL1        0.1503
     23 C         139.9744  140.6145  169.6290 C.3     1  UNL1        0.1003
     24 N         139.2605  141.5878  170.5195 N.3     1  UNL1       -0.2933
     25 C         139.7695  142.9922  170.6558 C.3     1  UNL1        0.1011
     26 C         140.9924  143.4232  169.9017 C.3     1  UNL1        0.1592
     27 O         141.7063  142.4499  169.0113 O.3     1  UNL1       -0.3516
     28 H         139.2582  141.1832  171.4558 H       1  UNL1        0.1234
@<TRIPOS>BOND
     1     7     8    3
     2     8     1    1
     3     1     2   ar
     4     2     3   ar
     5     3     4   ar
     6     4     9    1
     7     9    11    1
     8    11    12   ar
     9    12    13   ar
    10    13    14   ar
    11    14    17    1
    12    17    18    3
    13    14    15   ar
    14    15    16   ar
    15     4     5   ar
    16     5     6   ar
    17     6    19    1
    18    19    21    1
    19    22    21    1
    20    22    23    1
    21    23    24    1
    22    24    25    1
    23    25    26    1
    24    26    27    1
    25     6     1   ar
    26    27    22    1
    27    16    11   ar
    28     9    10    1
    29    19    20    1
    30    24    28    1
