@<TRIPOS>MOLECULE
*****
 26 30 0 0 0
SMALL
GASTEIGER

@<TRIPOS>ATOM
      1 N         138.4157  138.9522  165.5034 N.3     1  UNL1       -0.2715
      2 C         138.2081  140.2394  164.7618 C.3     1  UNL1        0.0725
      3 C         138.4367  140.2968  163.2805 C.3     1  UNL1        0.0214
      4 C         138.8729  139.0669  162.5407 C.3     1  UNL1        0.0216
      5 C         139.3081  137.9250  161.6709 C.3     1  UNL1        0.0088
      6 C         139.4106  138.4286  160.2616 C.3     1  UNL1        0.0264
      7 C         139.0389  139.8819  160.2605 C.ar    1  UNL1       -0.0261
      8 C         138.9600  140.8969  159.1590 C.ar    1  UNL1       -0.0046
      9 C         138.5489  142.3064  159.4659 C.ar    1  UNL1       -0.0003
     10 C         138.2166  142.7009  160.8745 C.ar    1  UNL1       -0.0003
     11 C         138.2955  141.6859  161.9760 C.ar    1  UNL1       -0.0046
     12 C         138.7066  140.2764  161.6691 C.ar    1  UNL1       -0.0266
     13 C         139.0806  137.7797  163.2823 C.3     1  UNL1        0.0214
     14 C         138.8519  137.7224  164.7637 C.3     1  UNL1        0.0725
     15 C         138.1871  138.8948  166.9848 C.3     1  UNL1        0.0883
     16 C         143.0318  142.5773  170.1813 C.ar    1  UNL1       -0.0003
     17 C         143.4193  142.3994  168.7432 C.ar    1  UNL1       -0.0003
     18 C         142.5278  141.6272  167.8163 C.ar    1  UNL1       -0.0045
     19 C         141.2489  141.0331  168.3275 C.ar    1  UNL1       -0.0234
     20 C         140.8614  141.2111  169.7656 C.ar    1  UNL1       -0.0103
     21 C         141.7528  141.9832  170.6925 C.ar    1  UNL1       -0.0032
     22 C         139.5825  140.6170  170.2768 C.3     1  UNL1        0.0953
     23 N         138.6910  139.8449  169.3498 N.3     1  UNL1       -0.2934
     24 C         139.0785  139.6669  167.9117 C.3     1  UNL1        0.0748
     25 C         140.3575  140.2610  167.4006 C.3     1  UNL1        0.0432
     26 H         137.7848  140.3131  169.3548 H       1  UNL1        0.1236
@<TRIPOS>BOND
     1    16    17   ar
     2    17    18   ar
     3    18    19   ar
     4    19    20   ar
     5    20    21   ar
     6    20    22    1
     7    22    23    1
     8    23    24    1
     9    24    15    1
    10    15     1    1
    11     1     2    1
    12     2     3    1
    13     3     4    1
    14     4     5    1
    15     5     6    1
    16     6     7    1
    17     7     8   ar
    18     8     9   ar
    19     9    10   ar
    20    10    11   ar
    21    11    12   ar
    22     4    13    1
    23    13    14    1
    24    24    25    1
    25    21    16   ar
    26    14     1    1
    27    25    19    1
    28    12     4    1
    29    12     7   ar
    30    23    26    1
@<TRIPOS>MOLECULE
*****
 26 30 0 0 0
SMALL
GASTEIGER

@<TRIPOS>ATOM
      1 N         139.1162  138.4507  165.0770 N.3     1  UNL1       -0.2715
      2 C         140.3617  139.2677  165.2534 C.3     1  UNL1        0.0725
      3 C         140.6015  140.0012  166.5397 C.3     1  UNL1        0.0214
      4 C         139.5958  139.9177  167.6494 C.3     1  UNL1        0.0216
      5 C         138.6852  139.9282  168.8414 C.3     1  UNL1        0.0088
      6 C         139.3149  140.7865  169.8983 C.3     1  UNL1        0.0264
      7 C         140.6147  141.3065  169.3594 C.ar    1  UNL1       -0.0261
      8 C         141.6626  142.1995  169.9547 C.ar    1  UNL1       -0.0046
      9 C         142.8840  142.5555  169.1603 C.ar    1  UNL1       -0.0003
     10 C         143.0577  142.0186  167.7704 C.ar    1  UNL1       -0.0003
     11 C         142.0097  141.1256  167.1751 C.ar    1  UNL1       -0.0046
     12 C         140.7883  140.7695  167.9696 C.ar    1  UNL1       -0.0266
     13 C         138.3503  139.1007  167.4729 C.3     1  UNL1        0.0214
     14 C         138.1105  138.3672  166.1867 C.3     1  UNL1        0.0725
     15 C         138.8764  137.7171  163.7907 C.3     1  UNL1        0.0883
     16 C         138.8233  140.3826  157.4548 C.ar    1  UNL1       -0.0003
     17 C         139.7688  139.2186  157.4899 C.ar    1  UNL1       -0.0003
     18 C         139.9686  138.4528  158.7642 C.ar    1  UNL1       -0.0045
     19 C         139.2227  138.8508  160.0032 C.ar    1  UNL1       -0.0234
     20 C         138.2772  140.0147  159.9681 C.ar    1  UNL1       -0.0103
     21 C         138.0774  140.7806  158.6940 C.ar    1  UNL1       -0.0032
     22 C         137.5314  140.4128  161.2072 C.3     1  UNL1        0.0953
     23 N         137.7311  139.6469  162.4814 N.3     1  UNL1       -0.2934
     24 C         138.6766  138.4830  162.5165 C.3     1  UNL1        0.0748
     25 C         139.4225  138.0850  161.2774 C.3     1  UNL1        0.0432
     26 H         136.8159  139.2912  162.7577 H       1  UNL1        0.1236
@<TRIPOS>BOND
     1    16    17   ar
     2    17    18   ar
     3    18    19   ar
     4    19    20   ar
     5    20    21   ar
     6    20    22    1
     7    22    23    1
     8    23    24    1
     9    24    15    1
    10    15     1    1
    11     1     2    1
    12     2     3    1
    13     3     4    1
    14     4     5    1
    15     5     6    1
    16     6     7    1
    17     7     8   ar
    18     8     9   ar
    19     9    10   ar
    20    10    11   ar
    21    11    12   ar
    22     4    13    1
    23    13    14    1
    24    24    25    1
    25    21    16   ar
    26    14     1    1
    27    25    19    1
    28    12     4    1
    29    12     7   ar
    30    23    26    1
@<TRIPOS>MOLECULE
*****
 26 30 0 0 0
SMALL
GASTEIGER

@<TRIPOS>ATOM
      1 N         142.0224  137.1908  157.3844 N.3     1  UNL1       -0.2715
      2 C         142.9769  136.0857  157.7274 C.3     1  UNL1        0.0725
      3 C         143.0925  134.8892  156.8303 C.3     1  UNL1        0.0214
      4 C         142.2536  134.7977  155.5902 C.3     1  UNL1        0.0216
      5 C         141.4839  134.5678  154.3234 C.3     1  UNL1        0.0088
      6 C         141.9139  133.2489  153.7526 C.3     1  UNL1        0.0264
      7 C         142.9493  132.6637  154.6666 C.ar    1  UNL1       -0.0261
      8 C         143.7281  131.3829  154.6116 C.ar    1  UNL1       -0.0046
      9 C         144.7167  131.0593  155.6921 C.ar    1  UNL1       -0.0003
     10 C         144.9268  132.0164  156.8278 C.ar    1  UNL1       -0.0003
     11 C         144.1480  133.2972  156.8829 C.ar    1  UNL1       -0.0046
     12 C         143.1593  133.6209  155.8023 C.ar    1  UNL1       -0.0266
     13 C         141.2991  135.9028  155.2472 C.3     1  UNL1        0.0214
     14 C         141.1835  137.0993  156.1443 C.3     1  UNL1        0.0725
     15 C         141.9067  138.3874  158.2816 C.3     1  UNL1        0.0883
     16 C         139.5880  137.7092  164.7169 C.ar    1  UNL1       -0.0003
     17 C         141.0770  137.5281  164.7099 C.ar    1  UNL1       -0.0003
     18 C         141.8386  137.6275  163.4213 C.ar    1  UNL1       -0.0045
     19 C         141.1111  137.9080  162.1399 C.ar    1  UNL1       -0.0234
     20 C         139.6221  138.0892  162.1470 C.ar    1  UNL1       -0.0103
     21 C         138.8605  137.9898  163.4354 C.ar    1  UNL1       -0.0032
     22 C         138.8946  138.3697  160.8656 C.3     1  UNL1        0.0953
     23 N         139.6562  138.4692  159.5770 N.3     1  UNL1       -0.2934
     24 C         141.1452  138.2880  159.5700 C.3     1  UNL1        0.0748
     25 C         141.8726  138.0075  160.8515 C.3     1  UNL1        0.0432
     26 H         139.4706  139.3970  159.1962 H       1  UNL1        0.1236
@<TRIPOS>BOND
     1    16    17   ar
     2    17    18   ar
     3    18    19   ar
     4    19    20   ar
     5    20    21   ar
     6    20    22    1
     7    22    23    1
     8    23    24    1
     9    24    15    1
    10    15     1    1
    11     1     2    1
    12     2     3    1
    13     3     4    1
    14     4     5    1
    15     5     6    1
    16     6     7    1
    17     7     8   ar
    18     8     9   ar
    19     9    10   ar
    20    10    11   ar
    21    11    12   ar
    22     4    13    1
    23    13    14    1
    24    24    25    1
    25    21    16   ar
    26    14     1    1
    27    25    19    1
    28    12     4    1
    29    12     7   ar
    30    23    26    1
@<TRIPOS>MOLECULE
*****
 26 30 0 0 0
SMALL
GASTEIGER

@<TRIPOS>ATOM
      1 N         139.4204  138.4747  164.8275 N.3     1  UNL1       -0.2715
      2 C         140.6228  139.3258  165.1100 C.3     1  UNL1        0.0725
      3 C         140.7539  140.0239  166.4311 C.3     1  UNL1        0.0214
      4 C         139.6826  139.8710  167.4697 C.3     1  UNL1        0.0216
      5 C         138.6976  139.8123  168.5995 C.3     1  UNL1        0.0088
      6 C         139.2280  140.6555  169.7212 C.3     1  UNL1        0.0264
      7 C         140.5408  141.2352  169.2845 C.ar    1  UNL1       -0.0261
      8 C         141.5166  142.1419  169.9741 C.ar    1  UNL1       -0.0046
      9 C         142.7733  142.5637  169.2724 C.ar    1  UNL1       -0.0003
     10 C         143.0544  142.0789  167.8810 C.ar    1  UNL1       -0.0003
     11 C         142.0785  141.1722  167.1914 C.ar    1  UNL1       -0.0046
     12 C         140.8217  140.7503  167.8931 C.ar    1  UNL1       -0.0266
     13 C         138.4802  139.0199  167.1873 C.3     1  UNL1        0.0214
     14 C         138.3491  138.3218  165.8662 C.3     1  UNL1        0.0725
     15 C         139.2893  137.7765  163.5063 C.3     1  UNL1        0.0883
     16 C         142.7299  140.2516  158.0947 C.ar    1  UNL1       -0.0003
     17 C         141.4783  141.0549  158.2900 C.ar    1  UNL1       -0.0003
     18 C         140.5398  140.7205  159.4114 C.ar    1  UNL1       -0.0045
     19 C         140.8530  139.5829  160.3375 C.ar    1  UNL1       -0.0234
     20 C         142.1046  138.7796  160.1422 C.ar    1  UNL1       -0.0103
     21 C         143.0431  139.1139  159.0208 C.ar    1  UNL1       -0.0032
     22 C         142.4178  137.6420  161.0682 C.3     1  UNL1        0.0953
     23 N         141.4793  137.3076  162.1897 N.3     1  UNL1       -0.2934
     24 C         140.2277  138.1109  162.3850 C.3     1  UNL1        0.0748
     25 C         139.9146  139.2486  161.4588 C.3     1  UNL1        0.0432
     26 H         142.0152  137.3825  163.0543 H       1  UNL1        0.1236
@<TRIPOS>BOND
     1    16    17   ar
     2    17    18   ar
     3    18    19   ar
     4    19    20   ar
     5    20    21   ar
     6    20    22    1
     7    22    23    1
     8    23    24    1
     9    24    15    1
    10    15     1    1
    11     1     2    1
    12     2     3    1
    13     3     4    1
    14     4     5    1
    15     5     6    1
    16     6     7    1
    17     7     8   ar
    18     8     9   ar
    19     9    10   ar
    20    10    11   ar
    21    11    12   ar
    22     4    13    1
    23    13    14    1
    24    24    25    1
    25    21    16   ar
    26    14     1    1
    27    25    19    1
    28    12     4    1
    29    12     7   ar
    30    23    26    1
@<TRIPOS>MOLECULE
*****
 26 30 0 0 0
SMALL
GASTEIGER

@<TRIPOS>ATOM
      1 N         139.3722  143.7139  163.7882 N.3     1  UNL1       -0.2715
      2 C         140.1136  143.8819  165.0812 C.3     1  UNL1        0.0725
      3 C         140.0989  142.7833  166.1024 C.3     1  UNL1        0.0214
      4 C         139.3428  141.5167  165.8305 C.3     1  UNL1        0.0216
      5 C         138.6346  140.2009  165.6998 C.3     1  UNL1        0.0088
      6 C         138.8878  139.4119  166.9502 C.3     1  UNL1        0.0264
      7 C         139.7525  140.2402  167.8537 C.ar    1  UNL1       -0.0261
      8 C         140.3202  139.9780  169.2172 C.ar    1  UNL1       -0.0046
      9 C         141.1690  141.0165  169.8886 C.ar    1  UNL1       -0.0003
     10 C         141.4502  142.3174  169.1966 C.ar    1  UNL1       -0.0003
     11 C         140.8825  142.5796  167.8332 C.ar    1  UNL1       -0.0046
     12 C         140.0337  141.5410  167.1617 C.ar    1  UNL1       -0.0266
     13 C         138.6013  141.3487  164.5375 C.3     1  UNL1        0.0214
     14 C         138.6160  142.4473  163.5163 C.3     1  UNL1        0.0725
     15 C         139.3868  144.8126  162.7670 C.3     1  UNL1        0.0883
     16 C         143.7599  143.2753  157.6912 C.ar    1  UNL1       -0.0003
     17 C         144.1733  142.5439  158.9339 C.ar    1  UNL1       -0.0003
     18 C         143.3814  142.7051  160.1976 C.ar    1  UNL1       -0.0045
     19 C         142.1760  143.5977  160.2186 C.ar    1  UNL1       -0.0234
     20 C         141.7626  144.3290  158.9759 C.ar    1  UNL1       -0.0103
     21 C         142.5545  144.1679  157.7123 C.ar    1  UNL1       -0.0032
     22 C         140.5573  145.2216  158.9970 C.3     1  UNL1        0.0953
     23 N         139.7653  145.3828  160.2607 N.3     1  UNL1       -0.2934
     24 C         140.1787  144.6514  161.5033 C.3     1  UNL1        0.0748
     25 C         141.3841  143.7588  161.4822 C.3     1  UNL1        0.0432
     26 H         138.8114  145.0893  160.0499 H       1  UNL1        0.1236
@<TRIPOS>BOND
     1    16    17   ar
     2    17    18   ar
     3    18    19   ar
     4    19    20   ar
     5    20    21   ar
     6    20    22    1
     7    22    23    1
     8    23    24    1
     9    24    15    1
    10    15     1    1
    11     1     2    1
    12     2     3    1
    13     3     4    1
    14     4     5    1
    15     5     6    1
    16     6     7    1
    17     7     8   ar
    18     8     9   ar
    19     9    10   ar
    20    10    11   ar
    21    11    12   ar
    22     4    13    1
    23    13    14    1
    24    24    25    1
    25    21    16   ar
    26    14     1    1
    27    25    19    1
    28    12     4    1
    29    12     7   ar
    30    23    26    1
@<TRIPOS>MOLECULE
*****
 26 30 0 0 0
SMALL
GASTEIGER

@<TRIPOS>ATOM
      1 N         138.8478  139.8628  163.9970 N.3     1  UNL1       -0.2715
      2 C         138.4235  140.1495  165.4069 C.3     1  UNL1        0.0725
      3 C         139.4117  140.0218  166.5281 C.3     1  UNL1        0.0214
      4 C         140.8241  139.6072  166.2395 C.3     1  UNL1        0.0216
      5 C         142.2628  139.2045  166.1052 C.3     1  UNL1        0.0088
      6 C         142.8749  139.2081  167.4747 C.3     1  UNL1        0.0264
      7 C         141.8145  139.6130  168.4553 C.ar    1  UNL1       -0.0261
      8 C         141.8393  139.7891  169.9447 C.ar    1  UNL1       -0.0046
      9 C         140.5967  140.2117  170.6708 C.ar    1  UNL1       -0.0003
     10 C         139.3292  140.4584  169.9075 C.ar    1  UNL1       -0.0003
     11 C         139.3044  140.2824  168.4180 C.ar    1  UNL1       -0.0046
     12 C         140.5471  139.8597  167.6920 C.ar    1  UNL1       -0.0266
     13 C         141.2483  139.3204  164.8296 C.3     1  UNL1        0.0214
     14 C         140.2602  139.4482  163.7084 C.3     1  UNL1        0.0725
     15 C         137.8596  139.9905  162.8757 C.3     1  UNL1        0.0883
     16 C         139.9740  144.4273  158.0701 C.ar    1  UNL1       -0.0003
     17 C         140.2873  144.9863  159.4263 C.ar    1  UNL1       -0.0003
     18 C         139.9270  144.2107  160.6587 C.ar    1  UNL1       -0.0045
     19 C         139.2535  142.8762  160.5348 C.ar    1  UNL1       -0.0234
     20 C         138.9402  142.3172  159.1786 C.ar    1  UNL1       -0.0103
     21 C         139.3004  143.0927  157.9462 C.ar    1  UNL1       -0.0032
     22 C         138.2667  140.9827  159.0547 C.3     1  UNL1        0.0953
     23 N         137.9065  140.2071  160.2871 N.3     1  UNL1       -0.2934
     24 C         138.2198  140.7661  161.6434 C.3     1  UNL1        0.0748
     25 C         138.8933  142.1007  161.7672 C.3     1  UNL1        0.0432
     26 H         138.3861  139.3093  160.2207 H       1  UNL1        0.1236
@<TRIPOS>BOND
     1    16    17   ar
     2    17    18   ar
     3    18    19   ar
     4    19    20   ar
     5    20    21   ar
     6    20    22    1
     7    22    23    1
     8    23    24    1
     9    24    15    1
    10    15     1    1
    11     1     2    1
    12     2     3    1
    13     3     4    1
    14     4     5    1
    15     5     6    1
    16     6     7    1
    17     7     8   ar
    18     8     9   ar
    19     9    10   ar
    20    10    11   ar
    21    11    12   ar
    22     4    13    1
    23    13    14    1
    24    24    25    1
    25    21    16   ar
    26    14     1    1
    27    25    19    1
    28    12     4    1
    29    12     7   ar
    30    23    26    1
@<TRIPOS>MOLECULE
*****
 26 30 0 0 0
SMALL
GASTEIGER

@<TRIPOS>ATOM
      1 N         139.8739  144.0979  162.9780 N.3     1  UNL1       -0.2715
      2 C         140.4220  144.0603  164.3737 C.3     1  UNL1        0.0725
      3 C         140.0955  142.9082  165.2769 C.3     1  UNL1        0.0214
      4 C         139.2208  141.7936  164.7844 C.3     1  UNL1        0.0216
      5 C         138.3642  140.6133  164.4333 C.3     1  UNL1        0.0088
      6 C         138.3075  139.7096  165.6293 C.3     1  UNL1        0.0264
      7 C         139.1290  140.3314  166.7195 C.ar    1  UNL1       -0.0261
      8 C         139.4361  139.8913  168.1202 C.ar    1  UNL1       -0.0046
      9 C         140.3075  140.7390  168.9987 C.ar    1  UNL1       -0.0003
     10 C         140.8720  142.0270  168.4766 C.ar    1  UNL1       -0.0003
     11 C         140.5649  142.4671  167.0759 C.ar    1  UNL1       -0.0046
     12 C         139.6935  141.6193  166.1974 C.ar    1  UNL1       -0.0266
     13 C         138.6726  141.8311  163.3887 C.3     1  UNL1        0.0214
     14 C         138.9991  142.9833  162.4855 C.3     1  UNL1        0.0725
     15 C         140.2004  145.2501  162.0747 C.3     1  UNL1        0.0883
     16 C         141.9904  144.9721  155.4438 C.ar    1  UNL1       -0.0003
     17 C         140.8775  145.9638  155.6108 C.ar    1  UNL1       -0.0003
     18 C         140.2969  146.2177  156.9704 C.ar    1  UNL1       -0.0045
     19 C         140.8292  145.4800  158.1630 C.ar    1  UNL1       -0.0234
     20 C         141.9422  144.4883  157.9960 C.ar    1  UNL1       -0.0103
     21 C         142.5227  144.2343  156.6365 C.ar    1  UNL1       -0.0032
     22 C         142.4745  143.7505  159.1886 C.3     1  UNL1        0.0953
     23 N         141.8939  144.0044  160.5482 N.3     1  UNL1       -0.2934
     24 C         140.7810  144.9962  160.7151 C.3     1  UNL1        0.0748
     25 C         140.2486  145.7339  159.5225 C.3     1  UNL1        0.0432
     26 H         142.6611  144.3201  161.1417 H       1  UNL1        0.1236
@<TRIPOS>BOND
     1    16    17   ar
     2    17    18   ar
     3    18    19   ar
     4    19    20   ar
     5    20    21   ar
     6    20    22    1
     7    22    23    1
     8    23    24    1
     9    24    15    1
    10    15     1    1
    11     1     2    1
    12     2     3    1
    13     3     4    1
    14     4     5    1
    15     5     6    1
    16     6     7    1
    17     7     8   ar
    18     8     9   ar
    19     9    10   ar
    20    10    11   ar
    21    11    12   ar
    22     4    13    1
    23    13    14    1
    24    24    25    1
    25    21    16   ar
    26    14     1    1
    27    25    19    1
    28    12     4    1
    29    12     7   ar
    30    23    26    1
@<TRIPOS>MOLECULE
*****
 26 30 0 0 0
SMALL
GASTEIGER

@<TRIPOS>ATOM
      1 N         142.2306  138.0298  162.8906 N.3     1  UNL1       -0.2715
      2 C         142.6700  138.7259  164.1445 C.3     1  UNL1        0.0725
      3 C         141.6727  139.0284  165.2232 C.3     1  UNL1        0.0214
      4 C         140.2359  138.6347  165.0481 C.3     1  UNL1        0.0216
      5 C         138.7733  138.3035  165.0148 C.3     1  UNL1        0.0088
      6 C         138.1595  138.7856  166.2958 C.3     1  UNL1        0.0264
      7 C         139.2428  139.4148  167.1208 C.ar    1  UNL1       -0.0261
      8 C         139.2265  140.0606  168.4746 C.ar    1  UNL1       -0.0046
      9 C         140.4933  140.6132  169.0572 C.ar    1  UNL1       -0.0003
     10 C         141.7767  140.5199  168.2862 C.ar    1  UNL1       -0.0003
     11 C         141.7930  139.8741  166.9324 C.ar    1  UNL1       -0.0046
     12 C         140.5260  139.3216  166.3498 C.ar    1  UNL1       -0.0266
     13 C         139.7965  137.9386  163.7943 C.3     1  UNL1        0.0214
     14 C         140.7938  137.6361  162.7155 C.3     1  UNL1        0.0725
     15 C         143.2279  137.7272  161.8117 C.3     1  UNL1        0.0883
     16 C         143.5920  142.3277  156.7173 C.ar    1  UNL1       -0.0003
     17 C         144.0162  142.9804  157.9996 C.ar    1  UNL1       -0.0003
     18 C         144.0282  142.1908  159.2749 C.ar    1  UNL1       -0.0045
     19 C         143.6161  140.7486  159.2680 C.ar    1  UNL1       -0.0234
     20 C         143.1919  140.0959  157.9858 C.ar    1  UNL1       -0.0103
     21 C         143.1799  140.8854  156.7105 C.ar    1  UNL1       -0.0032
     22 C         142.7797  138.6537  157.9789 C.3     1  UNL1        0.0953
     23 N         142.7918  137.8641  159.2542 N.3     1  UNL1       -0.2934
     24 C         143.2159  138.5168  160.5364 C.3     1  UNL1        0.0748
     25 C         143.6281  139.9591  160.5433 C.3     1  UNL1        0.0432
     26 H         143.4184  137.0732  159.1050 H       1  UNL1        0.1236
@<TRIPOS>BOND
     1    16    17   ar
     2    17    18   ar
     3    18    19   ar
     4    19    20   ar
     5    20    21   ar
     6    20    22    1
     7    22    23    1
     8    23    24    1
     9    24    15    1
    10    15     1    1
    11     1     2    1
    12     2     3    1
    13     3     4    1
    14     4     5    1
    15     5     6    1
    16     6     7    1
    17     7     8   ar
    18     8     9   ar
    19     9    10   ar
    20    10    11   ar
    21    11    12   ar
    22     4    13    1
    23    13    14    1
    24    24    25    1
    25    21    16   ar
    26    14     1    1
    27    25    19    1
    28    12     4    1
    29    12     7   ar
    30    23    26    1
@<TRIPOS>MOLECULE
*****
 26 30 0 0 0
SMALL
GASTEIGER

@<TRIPOS>ATOM
      1 N         140.7898  138.7451  159.4895 N.3     1  UNL1       -0.2715
      2 C         142.0559  139.0525  160.2327 C.3     1  UNL1        0.0725
      3 C         142.1301  138.8260  161.7136 C.3     1  UNL1        0.0214
      4 C         140.9382  138.2920  162.4513 C.3     1  UNL1        0.0216
      5 C         139.8337  137.7658  163.3192 C.3     1  UNL1        0.0088
      6 C         140.3429  137.7005  164.7287 C.3     1  UNL1        0.0264
      7 C         141.7621  138.1863  164.7319 C.ar    1  UNL1       -0.0261
      8 C         142.7669  138.3431  165.8345 C.ar    1  UNL1       -0.0046
      9 C         144.1395  138.8653  165.5297 C.ar    1  UNL1       -0.0003
     10 C         144.5075  139.2309  164.1222 C.ar    1  UNL1       -0.0003
     11 C         143.5027  139.0742  163.0196 C.ar    1  UNL1       -0.0046
     12 C         142.1300  138.5519  163.3244 C.ar    1  UNL1       -0.0266
     13 C         139.6721  137.9846  161.7081 C.3     1  UNL1        0.0214
     14 C         139.5979  138.2111  160.2272 C.3     1  UNL1        0.0725
     15 C         140.7155  138.9716  158.0085 C.3     1  UNL1        0.0883
     16 C         142.6457  133.4452  154.4053 C.ar    1  UNL1       -0.0003
     17 C         143.6171  133.6637  155.5271 C.ar    1  UNL1       -0.0003
     18 C         143.4253  134.8128  156.4721 C.ar    1  UNL1       -0.0045
     19 C         142.2622  135.7432  156.2953 C.ar    1  UNL1       -0.0234
     20 C         141.2907  135.5246  155.1735 C.ar    1  UNL1       -0.0103
     21 C         141.4824  134.3756  154.2285 C.ar    1  UNL1       -0.0032
     22 C         140.1275  136.4550  154.9966 C.3     1  UNL1        0.0953
     23 N         139.9357  137.6040  155.9417 N.3     1  UNL1       -0.2934
     24 C         140.9072  137.8226  157.0635 C.3     1  UNL1        0.0748
     25 C         142.0704  136.8921  157.2403 C.3     1  UNL1        0.0432
     26 H         139.0164  137.4850  156.3672 H       1  UNL1        0.1236
@<TRIPOS>BOND
     1    16    17   ar
     2    17    18   ar
     3    18    19   ar
     4    19    20   ar
     5    20    21   ar
     6    20    22    1
     7    22    23    1
     8    23    24    1
     9    24    15    1
    10    15     1    1
    11     1     2    1
    12     2     3    1
    13     3     4    1
    14     4     5    1
    15     5     6    1
    16     6     7    1
    17     7     8   ar
    18     8     9   ar
    19     9    10   ar
    20    10    11   ar
    21    11    12   ar
    22     4    13    1
    23    13    14    1
    24    24    25    1
    25    21    16   ar
    26    14     1    1
    27    25    19    1
    28    12     4    1
    29    12     7   ar
    30    23    26    1
