@<TRIPOS>MOLECULE
*****
 32 36 0 0 0
SMALL
GASTEIGER

@<TRIPOS>ATOM
      1 C         142.2464  144.3784  161.7174 C.3     1  UNL1        0.0730
      2 N         143.1610  143.3798  162.3627 N.3     1  UNL1       -0.2724
      3 C         144.4917  142.9327  161.8344 C.3     1  UNL1        0.0724
      4 C         145.0586  141.9296  162.7948 C.3     1  UNL1        0.0214
      5 C         145.3604  140.9784  163.9146 C.3     1  UNL1        0.0072
      6 C         144.0782  141.7568  163.9168 C.3     1  UNL1        0.0350
      7 C         142.9054  142.6530  163.6498 C.3     1  UNL1        0.0761
      8 C         143.5545  141.1927  165.2043 C.ar    1  UNL1       -0.0215
      9 C         143.4523  139.7072  165.3856 C.ar    1  UNL1       -0.0043
     10 C         142.9286  139.1431  166.6731 C.ar    1  UNL1        0.0035
     11 C         142.5072  140.0645  167.7792 C.ar    1  UNL1        0.0714
     12 C         142.6094  141.5500  167.5978 C.ar    1  UNL1        0.0035
     13 C         143.1331  142.1141  166.3103 C.ar    1  UNL1       -0.0043
     14 C         141.9835  139.5004  169.0667 C.3     1  UNL1        0.4186
     15 F         141.4598  138.9363  170.3541 F       1  UNL1       -0.1659
     16 F         140.9928  140.6231  169.1556 F       1  UNL1       -0.1659
     17 F         142.9742  138.3777  168.9778 F       1  UNL1       -0.1659
     18 C         141.3839  145.2640  162.5669 C.3     1  UNL1        0.0294
     19 C         139.9555  145.5122  162.1821 C.3     1  UNL1        0.0666
     20 S         138.8481  144.8280  162.9276 S.3     1  UNL1       -0.0756
     21 C         139.6045  141.3329  164.4367 C.ar    1  UNL1        0.2013
     22 N         139.5894  142.1846  165.6714 N.ar    1  UNL1       -0.1250
     23 N         139.3042  143.5975  165.2564 N.ar    1  UNL1       -0.1220
     24 C         139.1431  143.6191  163.7652 C.ar    1  UNL1        0.1933
     25 N         139.3287  142.2194  163.2587 N.ar    1  UNL1       -0.2860
     26 C         139.2519  141.7830  161.8256 C.3     1  UNL1        0.1341
     27 C         138.5070  139.1334  166.5832 C.3     1  UNL1        0.0344
     28 C         139.3476  138.8433  165.3752 C.ar    1  UNL1        0.0189
     29 C         139.8312  137.4912  164.9418 C.ar    1  UNL1        0.0395
     30 C         140.6347  137.6665  163.6873 C.ar    1  UNL1        0.1794
     31 O         140.6475  139.1269  163.3455 O.2     1  UNL1       -0.4476
     32 C         139.8520  139.8542  164.3886 C.ar    1  UNL1        0.1772
@<TRIPOS>BOND
     1    27    28    1
     2    28    29   ar
     3    29    30   ar
     4    30    31   ar
     5    31    32   ar
     6    32    21    1
     7    21    22   ar
     8    22    23   ar
     9    23    24   ar
    10    24    20    1
    11    20    19    1
    12    19    18    1
    13    18     1    1
    14     1     2    1
    15     2     3    1
    16     4     3    1
    17     4     5    1
    18     5     6    1
    19     6     8    1
    20     8     9   ar
    21     9    10   ar
    22    10    11   ar
    23    11    14    1
    24    14    15    1
    25    14    16    1
    26    14    17    1
    27    11    12   ar
    28    12    13   ar
    29     6     7    1
    30    24    25   ar
    31    25    26    1
    32    32    28   ar
    33    25    21   ar
    34     7     2    1
    35     6     4    1
    36    13     8   ar
@<TRIPOS>MOLECULE
*****
 32 36 0 0 0
SMALL
GASTEIGER

@<TRIPOS>ATOM
      1 C         138.4294  138.1645  162.5033 C.3     1  UNL1        0.0730
      2 N         139.6756  138.1731  163.3381 N.3     1  UNL1       -0.2724
      3 C         140.8351  137.2314  163.2013 C.3     1  UNL1        0.0724
      4 C         141.8573  137.6013  164.2349 C.3     1  UNL1        0.0214
      5 C         142.6726  138.1939  165.3457 C.3     1  UNL1        0.0072
      6 C         141.3295  138.7716  165.0107 C.3     1  UNL1        0.0350
      7 C         139.9812  139.1250  164.4564 C.3     1  UNL1        0.0761
      8 C         141.3542  139.8442  166.0589 C.ar    1  UNL1       -0.0215
      9 C         142.6501  140.5044  166.4260 C.ar    1  UNL1       -0.0043
     10 C         142.6749  141.5771  167.4743 C.ar    1  UNL1        0.0035
     11 C         141.4037  141.9896  168.1554 C.ar    1  UNL1        0.0714
     12 C         140.1077  141.3294  167.7883 C.ar    1  UNL1        0.0035
     13 C         140.0830  140.2568  166.7400 C.ar    1  UNL1       -0.0043
     14 C         141.4284  143.0622  169.2036 C.3     1  UNL1        0.4186
     15 F         141.4532  144.1349  170.2519 F       1  UNL1       -0.1659
     16 F         142.9209  142.9414  169.2921 F       1  UNL1       -0.1659
     17 F         139.9359  143.1831  169.1152 F       1  UNL1       -0.1659
     18 C         137.7841  139.4588  162.1057 C.3     1  UNL1        0.0294
     19 C         137.5238  139.7535  160.6581 C.3     1  UNL1        0.0666
     20 S         138.5034  140.5735  159.8718 S.3     1  UNL1       -0.0756
     21 C         140.5959  143.3371  161.6177 C.ar    1  UNL1        0.2013
     22 N         139.3997  144.1213  161.1658 N.ar    1  UNL1       -0.1250
     23 N         138.4703  143.1815  160.4568 N.ar    1  UNL1       -0.1220
     24 C         139.0920  141.8165  160.4705 C.ar    1  UNL1        0.1933
     25 N         140.4058  141.9127  161.1879 N.ar    1  UNL1       -0.2860
     26 C         141.3615  140.7828  161.4327 C.3     1  UNL1        0.1341
     27 C         140.8301  143.6521  164.8574 C.3     1  UNL1        0.0344
     28 C         141.8830  144.0266  163.8567 C.ar    1  UNL1        0.0189
     29 C         143.2283  144.6117  164.1695 C.ar    1  UNL1        0.0395
     30 C         143.9520  144.8285  162.8737 C.ar    1  UNL1        0.1794
     31 O         143.0541  144.3775  161.7601 O.2     1  UNL1       -0.4476
     32 C         141.7753  143.8819  162.3677 C.ar    1  UNL1        0.1772
@<TRIPOS>BOND
     1    27    28    1
     2    28    29   ar
     3    29    30   ar
     4    30    31   ar
     5    31    32   ar
     6    32    21    1
     7    21    22   ar
     8    22    23   ar
     9    23    24   ar
    10    24    20    1
    11    20    19    1
    12    19    18    1
    13    18     1    1
    14     1     2    1
    15     2     3    1
    16     4     3    1
    17     4     5    1
    18     5     6    1
    19     6     8    1
    20     8     9   ar
    21     9    10   ar
    22    10    11   ar
    23    11    14    1
    24    14    15    1
    25    14    16    1
    26    14    17    1
    27    11    12   ar
    28    12    13   ar
    29     6     7    1
    30    24    25   ar
    31    25    26    1
    32    32    28   ar
    33    25    21   ar
    34     7     2    1
    35     6     4    1
    36    13     8   ar
@<TRIPOS>MOLECULE
*****
 32 36 0 0 0
SMALL
GASTEIGER

@<TRIPOS>ATOM
      1 C         145.2911  142.1726  163.0514 C.3     1  UNL1        0.0730
      2 N         144.6090  141.1782  163.9435 N.3     1  UNL1       -0.2724
      3 C         144.6969  139.6851  163.8290 C.3     1  UNL1        0.0724
      4 C         143.8615  139.0864  164.9215 C.3     1  UNL1        0.0214
      5 C         142.9687  138.7867  166.0890 C.3     1  UNL1        0.0072
      6 C         143.2572  140.2094  165.7113 C.3     1  UNL1        0.0350
      7 C         143.7192  141.5022  165.1068 C.3     1  UNL1        0.0761
      8 C         142.4278  140.8309  166.7956 C.ar    1  UNL1       -0.0215
      9 C         141.2066  140.1238  167.3042 C.ar    1  UNL1       -0.0043
     10 C         140.3771  140.7452  168.3886 C.ar    1  UNL1        0.0035
     11 C         140.7689  142.0738  168.9644 C.ar    1  UNL1        0.0714
     12 C         141.9902  142.7808  168.4558 C.ar    1  UNL1        0.0035
     13 C         142.8197  142.1594  167.3715 C.ar    1  UNL1       -0.0043
     14 C         139.9395  142.6952  170.0488 C.3     1  UNL1        0.4186
     15 F         139.1101  143.3167  171.1331 F       1  UNL1       -0.1659
     16 F         140.6493  144.0006  169.8436 F       1  UNL1       -0.1659
     17 F         139.2297  141.3898  170.2539 F       1  UNL1       -0.1659
     18 C         144.5527  142.7678  161.8893 C.3     1  UNL1        0.0294
     19 C         143.4289  143.7319  162.1291 C.3     1  UNL1        0.0666
     20 S         142.0218  143.3449  161.7821 S.3     1  UNL1       -0.0756
     21 C         140.4322  140.1105  163.2234 C.ar    1  UNL1        0.2013
     22 N         141.0729  139.5861  161.9726 N.ar    1  UNL1       -0.1250
     23 N         141.7463  140.7338  161.2805 N.ar    1  UNL1       -0.1220
     24 C         141.5219  141.9676  162.1035 C.ar    1  UNL1        0.1933
     25 N         140.7097  141.5823  163.3043 N.ar    1  UNL1       -0.2860
     26 C         140.2548  142.5068  164.3945 C.3     1  UNL1        0.1341
     27 C         140.8843  136.9529  163.9123 C.3     1  UNL1        0.0344
     28 C         139.8589  137.8532  164.5352 C.ar    1  UNL1        0.0189
     29 C         138.8614  137.4601  165.5842 C.ar    1  UNL1        0.0395
     30 C         138.0370  138.6686  165.9158 C.ar    1  UNL1        0.1794
     31 O         138.5251  139.8085  165.0719 O.2     1  UNL1       -0.4476
     32 C         139.6511  139.3045  164.2186 C.ar    1  UNL1        0.1772
@<TRIPOS>BOND
     1    27    28    1
     2    28    29   ar
     3    29    30   ar
     4    30    31   ar
     5    31    32   ar
     6    32    21    1
     7    21    22   ar
     8    22    23   ar
     9    23    24   ar
    10    24    20    1
    11    20    19    1
    12    19    18    1
    13    18     1    1
    14     1     2    1
    15     2     3    1
    16     4     3    1
    17     4     5    1
    18     5     6    1
    19     6     8    1
    20     8     9   ar
    21     9    10   ar
    22    10    11   ar
    23    11    14    1
    24    14    15    1
    25    14    16    1
    26    14    17    1
    27    11    12   ar
    28    12    13   ar
    29     6     7    1
    30    24    25   ar
    31    25    26    1
    32    32    28   ar
    33    25    21   ar
    34     7     2    1
    35     6     4    1
    36    13     8   ar
@<TRIPOS>MOLECULE
*****
 32 36 0 0 0
SMALL
GASTEIGER

@<TRIPOS>ATOM
      1 C         142.4050  141.6143  161.0658 C.3     1  UNL1        0.0730
      2 N         143.0382  140.8915  162.2176 N.3     1  UNL1       -0.2724
      3 C         144.1952  139.9406  162.1331 C.3     1  UNL1        0.0724
      4 C         144.4976  139.4541  163.5194 C.3     1  UNL1        0.0214
      5 C         144.5609  139.1532  164.9875 C.3     1  UNL1        0.0072
      6 C         143.5275  140.1042  164.4607 C.3     1  UNL1        0.0350
      7 C         142.6255  140.9926  163.6561 C.3     1  UNL1        0.0761
      8 C         142.8987  140.4042  165.7891 C.ar    1  UNL1       -0.0215
      9 C         142.4104  139.2832  166.6579 C.ar    1  UNL1       -0.0043
     10 C         141.7816  139.5831  167.9864 C.ar    1  UNL1        0.0035
     11 C         141.6412  141.0040  168.4460 C.ar    1  UNL1        0.0714
     12 C         142.1296  142.1251  167.5771 C.ar    1  UNL1        0.0035
     13 C         142.7583  141.8251  166.2487 C.ar    1  UNL1       -0.0043
     14 C         141.0125  141.3040  169.7744 C.3     1  UNL1        0.4186
     15 F         140.3837  141.6039  171.1028 F       1  UNL1       -0.1659
     16 F         139.6720  141.4258  169.1125 F       1  UNL1       -0.1659
     17 F         142.3530  141.1821  170.4364 F       1  UNL1       -0.1659
     18 C         141.0230  141.2433  160.6160 C.3     1  UNL1        0.0294
     19 C         140.8343  140.1997  159.5552 C.3     1  UNL1        0.0666
     20 S         140.3963  138.8159  159.9339 S.3     1  UNL1       -0.0756
     21 C         139.7098  138.1059  163.6875 C.ar    1  UNL1        0.2013
     22 N         141.0293  137.4178  163.4989 N.ar    1  UNL1       -0.1250
     23 N         141.4470  137.6000  162.0699 N.ar    1  UNL1       -0.1220
     24 C         140.3858  138.4007  161.3752 C.ar    1  UNL1        0.1933
     25 N         139.3121  138.7134  162.3750 N.ar    1  UNL1       -0.2860
     26 C         138.0605  139.4962  162.1089 C.3     1  UNL1        0.1341
     27 C         139.1997  140.7822  165.4839 C.3     1  UNL1        0.0344
     28 C         138.6913  139.4046  165.7901 C.ar    1  UNL1        0.0189
     29 C         137.8592  139.0153  166.9759 C.ar    1  UNL1        0.0395
     30 C         137.5793  137.5446  166.8830 C.ar    1  UNL1        0.1794
     31 O         138.2385  137.0249  165.6399 O.2     1  UNL1       -0.4476
     32 C         138.9257  138.1745  164.9645 C.ar    1  UNL1        0.1772
@<TRIPOS>BOND
     1    27    28    1
     2    28    29   ar
     3    29    30   ar
     4    30    31   ar
     5    31    32   ar
     6    32    21    1
     7    21    22   ar
     8    22    23   ar
     9    23    24   ar
    10    24    20    1
    11    20    19    1
    12    19    18    1
    13    18     1    1
    14     1     2    1
    15     2     3    1
    16     4     3    1
    17     4     5    1
    18     5     6    1
    19     6     8    1
    20     8     9   ar
    21     9    10   ar
    22    10    11   ar
    23    11    14    1
    24    14    15    1
    25    14    16    1
    26    14    17    1
    27    11    12   ar
    28    12    13   ar
    29     6     7    1
    30    24    25   ar
    31    25    26    1
    32    32    28   ar
    33    25    21   ar
    34     7     2    1
    35     6     4    1
    36    13     8   ar
@<TRIPOS>MOLECULE
*****
 32 36 0 0 0
SMALL
GASTEIGER

@<TRIPOS>ATOM
      1 C         140.5301  145.2361  163.2815 C.3     1  UNL1        0.0730
      2 N         141.7847  144.5237  163.6919 N.3     1  UNL1       -0.2724
      3 C         143.1475  144.7256  163.0986 C.3     1  UNL1        0.0724
      4 C         144.1019  143.8111  163.8077 C.3     1  UNL1        0.0214
      5 C         144.8019  142.8106  164.6789 C.3     1  UNL1        0.0072
      6 C         143.3289  143.0440  164.8392 C.3     1  UNL1        0.0350
      7 C         141.8968  143.4844  164.7676 C.3     1  UNL1        0.0761
      8 C         143.1331  142.0534  165.9485 C.ar    1  UNL1       -0.0215
      9 C         143.0073  142.5294  167.3654 C.ar    1  UNL1       -0.0043
     10 C         142.8115  141.5388  168.4747 C.ar    1  UNL1        0.0035
     11 C         142.7414  140.0724  168.1671 C.ar    1  UNL1        0.0714
     12 C         142.8672  139.5965  166.7501 C.ar    1  UNL1        0.0035
     13 C         143.0630  140.5870  165.6408 C.ar    1  UNL1       -0.0043
     14 C         142.5456  139.0819  169.2764 C.3     1  UNL1        0.4186
     15 F         142.3497  138.0914  170.3856 F       1  UNL1       -0.1659
     16 F         141.8216  140.1227  170.0779 F       1  UNL1       -0.1659
     17 F         143.2696  138.0411  168.4748 F       1  UNL1       -0.1659
     18 C         140.3197  145.6179  161.8462 C.3     1  UNL1        0.0294
     19 C         140.7584  144.6911  160.7515 C.3     1  UNL1        0.0666
     20 S         139.8467  143.5940  160.2873 S.3     1  UNL1       -0.0756
     21 C         138.6100  141.0782  162.9718 C.ar    1  UNL1        0.2013
     22 N         137.3529  141.8485  162.6955 N.ar    1  UNL1       -0.1250
     23 N         137.6632  142.8847  161.6564 N.ar    1  UNL1       -0.1220
     24 C         139.1120  142.7548  161.2903 C.ar    1  UNL1        0.1933
     25 N         139.6971  141.6382  162.1033 N.ar    1  UNL1       -0.2860
     26 C         141.1197  141.1649  162.0560 C.3     1  UNL1        0.1341
     27 C         139.5032  141.3409  166.0995 C.3     1  UNL1        0.0344
     28 C         139.1650  140.0671  165.3831 C.ar    1  UNL1        0.0189
     29 C         139.1781  138.6905  165.9788 C.ar    1  UNL1        0.0395
     30 C         138.7755  137.7189  164.9092 C.ar    1  UNL1        0.1794
     31 O         138.5138  138.4951  163.6526 O.2     1  UNL1       -0.4476
     32 C         138.7545  139.9463  163.9456 C.ar    1  UNL1        0.1772
@<TRIPOS>BOND
     1    27    28    1
     2    28    29   ar
     3    29    30   ar
     4    30    31   ar
     5    31    32   ar
     6    32    21    1
     7    21    22   ar
     8    22    23   ar
     9    23    24   ar
    10    24    20    1
    11    20    19    1
    12    19    18    1
    13    18     1    1
    14     1     2    1
    15     2     3    1
    16     4     3    1
    17     4     5    1
    18     5     6    1
    19     6     8    1
    20     8     9   ar
    21     9    10   ar
    22    10    11   ar
    23    11    14    1
    24    14    15    1
    25    14    16    1
    26    14    17    1
    27    11    12   ar
    28    12    13   ar
    29     6     7    1
    30    24    25   ar
    31    25    26    1
    32    32    28   ar
    33    25    21   ar
    34     7     2    1
    35     6     4    1
    36    13     8   ar
@<TRIPOS>MOLECULE
*****
 32 36 0 0 0
SMALL
GASTEIGER

@<TRIPOS>ATOM
      1 C         137.9463  143.2157  162.4494 C.3     1  UNL1        0.0730
      2 N         138.1984  142.0082  163.3029 N.3     1  UNL1       -0.2724
      3 C         137.8714  140.5895  162.9420 C.3     1  UNL1        0.0724
      4 C         138.2927  139.7119  164.0833 C.3     1  UNL1        0.0214
      5 C         138.8047  139.1045  165.3555 C.3     1  UNL1        0.0072
      6 C         138.8801  140.5883  165.1495 C.3     1  UNL1        0.0350
      7 C         138.8219  142.0075  164.6673 C.3     1  UNL1        0.0761
      8 C         139.5193  140.8978  166.4707 C.ar    1  UNL1       -0.0215
      9 C         139.4171  139.9173  167.6013 C.ar    1  UNL1       -0.0043
     10 C         140.0563  140.2267  168.9226 C.ar    1  UNL1        0.0035
     11 C         140.7977  141.5167  169.1133 C.ar    1  UNL1        0.0714
     12 C         140.8998  142.4972  167.9827 C.ar    1  UNL1        0.0035
     13 C         140.2606  142.1878  166.6614 C.ar    1  UNL1       -0.0043
     14 C         141.4368  141.8262  170.4345 C.3     1  UNL1        0.4186
     15 F         142.0760  142.1356  171.7557 F       1  UNL1       -0.1659
     16 F         140.5728  140.7928  171.0945 F       1  UNL1       -0.1659
     17 F         142.3008  142.8595  169.7745 F       1  UNL1       -0.1659
     18 C         138.5397  144.5399  162.8294 C.3     1  UNL1        0.0294
     19 C         139.2776  145.3523  161.8069 C.3     1  UNL1        0.0666
     20 S         140.7589  145.1833  161.6414 S.3     1  UNL1       -0.0756
     21 C         142.6399  142.5623  163.7994 C.ar    1  UNL1        0.2013
     22 N         142.8507  143.8083  164.6076 N.ar    1  UNL1       -0.1250
     23 N         142.1717  144.9417  163.8976 N.ar    1  UNL1       -0.1220
     24 C         141.5413  144.3963  162.6506 C.ar    1  UNL1        0.1933
     25 N         141.8307  142.9257  162.5900 N.ar    1  UNL1       -0.2860
     26 C         141.3884  141.9840  161.5094 C.3     1  UNL1        0.1341
     27 C         145.7584  141.6030  163.7303 C.3     1  UNL1        0.0344
     28 C         144.5824  140.7523  164.1091 C.ar    1  UNL1        0.0189
     29 C         144.6334  139.3114  164.5226 C.ar    1  UNL1        0.0395
     30 C         143.2315  138.8618  164.8099 C.ar    1  UNL1        0.1794
     31 O         142.3142  140.0248  164.5740 O.2     1  UNL1       -0.4476
     32 C         143.1491  141.1932  164.1409 C.ar    1  UNL1        0.1772
@<TRIPOS>BOND
     1    27    28    1
     2    28    29   ar
     3    29    30   ar
     4    30    31   ar
     5    31    32   ar
     6    32    21    1
     7    21    22   ar
     8    22    23   ar
     9    23    24   ar
    10    24    20    1
    11    20    19    1
    12    19    18    1
    13    18     1    1
    14     1     2    1
    15     2     3    1
    16     4     3    1
    17     4     5    1
    18     5     6    1
    19     6     8    1
    20     8     9   ar
    21     9    10   ar
    22    10    11   ar
    23    11    14    1
    24    14    15    1
    25    14    16    1
    26    14    17    1
    27    11    12   ar
    28    12    13   ar
    29     6     7    1
    30    24    25   ar
    31    25    26    1
    32    32    28   ar
    33    25    21   ar
    34     7     2    1
    35     6     4    1
    36    13     8   ar
@<TRIPOS>MOLECULE
*****
 32 36 0 0 0
SMALL
GASTEIGER

@<TRIPOS>ATOM
      1 C         138.4045  144.4014  162.8294 C.3     1  UNL1        0.0730
      2 N         138.3555  143.0422  163.4620 N.3     1  UNL1       -0.2724
      3 C         137.6795  141.8294  162.8945 C.3     1  UNL1        0.0724
      4 C         137.8801  140.6948  163.8549 C.3     1  UNL1        0.0214
      5 C         138.2377  139.7735  164.9833 C.3     1  UNL1        0.0072
      6 C         138.6802  141.2063  165.0160 C.3     1  UNL1        0.0350
      7 C         138.9740  142.6571  164.7732 C.3     1  UNL1        0.0761
      8 C         139.3912  141.1208  166.3340 C.ar    1  UNL1       -0.0215
      9 C         140.3075  142.2274  166.7650 C.ar    1  UNL1       -0.0043
     10 C         141.0185  142.1419  168.0831 C.ar    1  UNL1        0.0035
     11 C         140.8132  140.9498  168.9701 C.ar    1  UNL1        0.0714
     12 C         139.8968  139.8432  168.5390 C.ar    1  UNL1        0.0035
     13 C         139.1858  139.9287  167.2210 C.ar    1  UNL1       -0.0043
     14 C         141.5241  140.8643  170.2881 C.3     1  UNL1        0.4186
     15 F         142.2351  140.7788  171.6061 F       1  UNL1       -0.1659
     16 F         141.5957  139.3722  170.1527 F       1  UNL1       -0.1659
     17 F         141.4526  142.3564  170.4235 F       1  UNL1       -0.1659
     18 C         139.6916  145.1712  162.8048 C.3     1  UNL1        0.0294
     19 C         140.5244  145.2003  161.5576 C.3     1  UNL1        0.0666
     20 S         141.8052  144.4222  161.4926 S.3     1  UNL1       -0.0756
     21 C         141.9472  141.0329  163.3787 C.ar    1  UNL1        0.2013
     22 N         142.7702  141.9023  164.2825 N.ar    1  UNL1       -0.1250
     23 N         142.8171  143.2777  163.6860 N.ar    1  UNL1       -0.1220
     24 C         142.0232  143.2584  162.4135 C.ar    1  UNL1        0.1933
     25 N         141.4856  141.8710  162.2236 N.ar    1  UNL1       -0.2860
     26 C         140.6355  141.4039  161.0794 C.3     1  UNL1        0.1341
     27 C         142.6515  139.2961  166.0503 C.3     1  UNL1        0.0344
     28 C         141.9636  138.7821  164.8204 C.ar    1  UNL1        0.0189
     29 C         141.4786  137.3794  164.6026 C.ar    1  UNL1        0.0395
     30 C         140.8552  137.3109  163.2401 C.ar    1  UNL1        0.1794
     31 O         140.9548  138.6710  162.6157 O.2     1  UNL1       -0.4476
     32 C         141.6399  139.5803  163.5925 C.ar    1  UNL1        0.1772
@<TRIPOS>BOND
     1    27    28    1
     2    28    29   ar
     3    29    30   ar
     4    30    31   ar
     5    31    32   ar
     6    32    21    1
     7    21    22   ar
     8    22    23   ar
     9    23    24   ar
    10    24    20    1
    11    20    19    1
    12    19    18    1
    13    18     1    1
    14     1     2    1
    15     2     3    1
    16     4     3    1
    17     4     5    1
    18     5     6    1
    19     6     8    1
    20     8     9   ar
    21     9    10   ar
    22    10    11   ar
    23    11    14    1
    24    14    15    1
    25    14    16    1
    26    14    17    1
    27    11    12   ar
    28    12    13   ar
    29     6     7    1
    30    24    25   ar
    31    25    26    1
    32    32    28   ar
    33    25    21   ar
    34     7     2    1
    35     6     4    1
    36    13     8   ar
@<TRIPOS>MOLECULE
*****
 32 36 0 0 0
SMALL
GASTEIGER

@<TRIPOS>ATOM
      1 C         144.2586  138.8115  163.4121 C.3     1  UNL1        0.0730
      2 N         144.3010  140.1925  163.9959 N.3     1  UNL1       -0.2724
      3 C         145.1805  141.3174  163.5365 C.3     1  UNL1        0.0724
      4 C         144.8944  142.5113  164.3984 C.3     1  UNL1        0.0214
      5 C         144.4030  143.5138  165.4001 C.3     1  UNL1        0.0072
      6 C         143.8381  142.1243  165.3905 C.3     1  UNL1        0.0350
      7 C         143.4714  140.6912  165.1418 C.3     1  UNL1        0.0761
      8 C         142.8904  142.3324  166.5344 C.ar    1  UNL1       -0.0215
      9 C         141.4239  142.5060  166.2713 C.ar    1  UNL1       -0.0043
     10 C         140.4761  142.7142  167.4152 C.ar    1  UNL1        0.0035
     11 C         140.9949  142.7488  168.8222 C.ar    1  UNL1        0.0714
     12 C         142.4615  142.5752  169.0853 C.ar    1  UNL1        0.0035
     13 C         143.4092  142.3671  167.9414 C.ar    1  UNL1       -0.0043
     14 C         140.0472  142.9569  169.9661 C.3     1  UNL1        0.4186
     15 F         139.0994  143.1651  171.1099 F       1  UNL1       -0.1659
     16 F         139.6153  141.5238  169.8691 F       1  UNL1       -0.1659
     17 F         140.4790  144.3901  170.0631 F       1  UNL1       -0.1659
     18 C         143.0861  138.3849  162.5794 C.3     1  UNL1        0.0294
     19 C         142.9984  138.7981  161.1401 C.3     1  UNL1        0.0666
     20 S         141.6937  139.2762  160.5752 S.3     1  UNL1       -0.0756
     21 C         140.1592  142.4995  162.0985 C.ar    1  UNL1        0.2013
     22 N         140.6525  143.0098  160.7771 N.ar    1  UNL1       -0.1250
     23 N         141.2873  141.8645  160.0456 N.ar    1  UNL1       -0.1220
     24 C         141.1864  140.6463  160.9150 C.ar    1  UNL1        0.1933
     25 N         140.4892  141.0389  162.1838 N.ar    1  UNL1       -0.2860
     26 C         140.1769  140.1301  163.3356 C.3     1  UNL1        0.1341
     27 C         141.3865  145.0878  163.6620 C.3     1  UNL1        0.0344
     28 C         140.0230  144.4977  163.8688 C.ar    1  UNL1        0.0189
     29 C         138.9842  144.9938  164.8305 C.ar    1  UNL1        0.0395
     30 C         137.7782  144.1107  164.7063 C.ar    1  UNL1        0.1794
     31 O         138.0715  143.0689  163.6678 O.2     1  UNL1       -0.4476
     32 C         139.4589  143.3081  163.1502 C.ar    1  UNL1        0.1772
@<TRIPOS>BOND
     1    27    28    1
     2    28    29   ar
     3    29    30   ar
     4    30    31   ar
     5    31    32   ar
     6    32    21    1
     7    21    22   ar
     8    22    23   ar
     9    23    24   ar
    10    24    20    1
    11    20    19    1
    12    19    18    1
    13    18     1    1
    14     1     2    1
    15     2     3    1
    16     4     3    1
    17     4     5    1
    18     5     6    1
    19     6     8    1
    20     8     9   ar
    21     9    10   ar
    22    10    11   ar
    23    11    14    1
    24    14    15    1
    25    14    16    1
    26    14    17    1
    27    11    12   ar
    28    12    13   ar
    29     6     7    1
    30    24    25   ar
    31    25    26    1
    32    32    28   ar
    33    25    21   ar
    34     7     2    1
    35     6     4    1
    36    13     8   ar
@<TRIPOS>MOLECULE
*****
 32 36 0 0 0
SMALL
GASTEIGER

@<TRIPOS>ATOM
      1 C         143.6441  138.1033  162.0189 C.3     1  UNL1        0.0730
      2 N         142.2923  138.0823  162.6686 N.3     1  UNL1       -0.2724
      3 C         141.0335  137.5312  162.0673 C.3     1  UNL1        0.0724
      4 C         139.9251  137.7170  163.0607 C.3     1  UNL1        0.0214
      5 C         139.0413  138.0318  164.2311 C.3     1  UNL1        0.0072
      6 C         140.4989  138.3829  164.2762 C.3     1  UNL1        0.0350
      7 C         141.9619  138.6087  164.0338 C.3     1  UNL1        0.0761
      8 C         140.4733  138.9827  165.6508 C.ar    1  UNL1       -0.0215
      9 C         139.1650  139.1877  166.3553 C.ar    1  UNL1       -0.0043
     10 C         139.1393  139.7875  167.7300 C.ar    1  UNL1        0.0035
     11 C         140.4220  140.1823  168.4001 C.ar    1  UNL1        0.0714
     12 C         141.7303  139.9773  167.6955 C.ar    1  UNL1        0.0035
     13 C         141.7559  139.3775  166.3209 C.ar    1  UNL1       -0.0043
     14 C         140.3963  140.7821  169.7747 C.3     1  UNL1        0.4186
     15 F         140.3707  141.3819  171.1493 F       1  UNL1       -0.1659
     16 F         140.7129  139.4405  170.3660 F       1  UNL1       -0.1659
     17 F         140.0798  142.1238  169.1834 F       1  UNL1       -0.1659
     18 C         143.9743  139.1617  161.0086 C.3     1  UNL1        0.0294
     19 C         144.5329  140.4793  161.4579 C.3     1  UNL1        0.0666
     20 S         144.1070  141.7460  160.7766 S.3     1  UNL1       -0.0756
     21 C         141.2617  143.7057  162.5453 C.ar    1  UNL1        0.2013
     22 N         142.3836  144.6991  162.6134 N.ar    1  UNL1       -0.1250
     23 N         143.5859  144.0859  161.9592 N.ar    1  UNL1       -0.1220
     24 C         143.2072  142.7136  161.4867 C.ar    1  UNL1        0.1933
     25 N         141.7707  142.4787  161.8489 N.ar    1  UNL1       -0.2860
     26 C         140.9818  141.2349  161.5646 C.3     1  UNL1        0.1341
     27 C         140.2650  143.0557  165.5840 C.3     1  UNL1        0.0344
     28 C         139.4162  143.6059  164.4764 C.ar    1  UNL1        0.0189
     29 C         137.9602  143.9538  164.5712 C.ar    1  UNL1        0.0395
     30 C         137.5184  144.4677  163.2330 C.ar    1  UNL1        0.1794
     31 O         138.7013  144.4373  162.3112 O.2     1  UNL1       -0.4476
     32 C         139.8742  143.9047  163.0798 C.ar    1  UNL1        0.1772
@<TRIPOS>BOND
     1    27    28    1
     2    28    29   ar
     3    29    30   ar
     4    30    31   ar
     5    31    32   ar
     6    32    21    1
     7    21    22   ar
     8    22    23   ar
     9    23    24   ar
    10    24    20    1
    11    20    19    1
    12    19    18    1
    13    18     1    1
    14     1     2    1
    15     2     3    1
    16     4     3    1
    17     4     5    1
    18     5     6    1
    19     6     8    1
    20     8     9   ar
    21     9    10   ar
    22    10    11   ar
    23    11    14    1
    24    14    15    1
    25    14    16    1
    26    14    17    1
    27    11    12   ar
    28    12    13   ar
    29     6     7    1
    30    24    25   ar
    31    25    26    1
    32    32    28   ar
    33    25    21   ar
    34     7     2    1
    35     6     4    1
    36    13     8   ar
