@<TRIPOS>MOLECULE
*****
 41 47 0 0 0
SMALL
GASTEIGER

@<TRIPOS>ATOM
      1 C         142.3139  142.7279  160.2219 C.3     1  UNL1        0.1707
      2 N         141.8094  143.3369  158.9474 N.3     1  UNL1       -0.2797
      3 C         140.6210  144.2519  158.9723 C.3     1  UNL1        0.1167
      4 C         139.9372  144.5579  160.2718 C.3     1  UNL1        0.0511
      5 C         140.4417  143.9489  161.5464 C.2     1  UNL1       -0.0037
      6 C         141.6301  143.0339  161.5215 C.2     1  UNL1        0.0800
      7 N         141.8988  142.5848  162.9272 N.2     1  UNL1       -0.2519
      8 C         140.8766  143.2222  163.8209 C.2     1  UNL1        0.0627
      9 C         140.6494  143.1439  165.3015 C.3     1  UNL1        0.0717
     10 C         139.5217  143.9086  165.9287 C.2     1  UNL1       -0.0198
     11 C         138.6212  144.7517  165.0754 C.2     1  UNL1       -0.0042
     12 C         138.8483  144.8300  163.5948 C.2     1  UNL1        0.0006
     13 C         139.9760  144.0653  162.9676 C.2     1  UNL1        0.0111
     14 H         141.5729  142.5640  158.3252 H       1  UNL1        0.1246
     15 C         143.1577  141.9146  161.1582 C.ar    1  UNL1        0.2493
     16 N         142.8678  140.5164  161.6174 N.ar    1  UNL1       -0.1285
     17 N         143.9705  140.0944  162.5427 N.ar    1  UNL1       -0.1809
     18 C         144.0821  138.7679  163.2339 C.3     1  UNL1        0.1605
     19 C         144.9419  141.2318  162.6552 C.ar    1  UNL1        0.4389
     20 O         146.1955  141.2424  163.4788 O.2     1  UNL1       -0.2210
     21 O         144.4395  142.3568  161.7996 O.2     1  UNL1       -0.3896
     22 C         140.1165  144.8609  157.6977 C.ar    1  UNL1        0.1319
     23 N         140.3526  146.2696  157.2398 N.ar    1  UNL1       -0.2282
     24 C         139.6693  146.4475  155.9164 C.ar    1  UNL1        0.1171
     25 C         139.0109  145.1487  155.5564 C.ar    1  UNL1        0.0942
     26 N         139.2873  144.1681  156.6573 N.ar    1  UNL1       -0.3385
     27 H         138.9786  143.2338  156.6911 H       1  UNL1        0.1672
     28 C         139.6481  147.7037  155.0968 C.ar    1  UNL1        0.1006
     29 C         140.2936  147.7269  153.7430 C.ar    1  UNL1        0.0230
     30 C         140.2725  148.9830  152.9235 C.ar    1  UNL1        0.0328
     31 C         139.6058  150.2159  153.4577 C.ar    1  UNL1        0.1592
     32 F         139.5846  151.4721  152.6382 F       1  UNL1       -0.2025
     33 C         138.9602  150.1927  154.8115 C.ar    1  UNL1        0.1284
     34 N         138.9814  148.9366  155.6310 N.ar    1  UNL1       -0.2399
     35 N         145.0930  141.9127  157.6379 N.ar    1  UNL1       -0.2497
     36 C         144.3487  142.8921  158.4963 C.ar    1  UNL1        0.0944
     37 C         143.2908  142.1395  159.2476 C.ar    1  UNL1        0.0439
     38 C         143.3813  140.6950  158.8535 C.ar    1  UNL1        0.1194
     39 N         144.4952  140.5549  157.8586 N.ar    1  UNL1       -0.1679
     40 C         147.4608  142.9118  157.2567 C.3     1  UNL1        0.0284
     41 C         146.2347  142.2348  156.7198 C.3     1  UNL1        0.1276
@<TRIPOS>BOND
     1    40    41    1
     2    41    35    1
     3    35    36   ar
     4    36    37   ar
     5     1    37    1
     6     1    15    1
     7    15    16   ar
     8    16    17   ar
     9    17    18    1
    10    17    19   ar
    11    19    20    2
    12    19    21   ar
    13     1     2    1
    14     2     3    1
    15     3    22    1
    16    22    23   ar
    17    23    24   ar
    18    24    28    1
    19    28    29   ar
    20    29    30   ar
    21    30    31   ar
    22    31    32    1
    23    31    33   ar
    24    33    34   ar
    25    24    25   ar
    26    25    26   ar
    27     3     4    1
    28     4     5    1
    29     5     6    2
    30     6     7    1
    31     7     8    2
    32     8     9    1
    33     9    10    1
    34    10    11    2
    35    11    12    1
    36    12    13    2
    37    37    38   ar
    38    38    39   ar
    39    39    35   ar
    40     6     1    1
    41    13     8    1
    42    21    15   ar
    43    26    22   ar
    44    13     5    1
    45    34    28   ar
    46     2    14    1
    47    26    27    1
@<TRIPOS>MOLECULE
*****
 41 47 0 0 0
SMALL
GASTEIGER

@<TRIPOS>ATOM
      1 C         140.8976  141.3328  159.8752 C.3     1  UNL1        0.1707
      2 N         141.2011  140.2544  158.8777 N.3     1  UNL1       -0.2797
      3 C         142.4730  139.4669  158.9883 C.3     1  UNL1        0.1167
      4 C         143.4413  139.7579  160.0963 C.3     1  UNL1        0.0511
      5 C         143.1378  140.8362  161.0937 C.2     1  UNL1       -0.0037
      6 C         141.8660  141.6237  160.9832 C.2     1  UNL1        0.0800
      7 N         141.8380  142.6189  162.1051 N.2     1  UNL1       -0.2519
      8 C         143.0926  142.4465  162.9091 C.2     1  UNL1        0.0627
      9 C         143.6072  143.1505  164.1295 C.3     1  UNL1        0.0717
     10 C         144.9252  142.7526  164.7249 C.2     1  UNL1       -0.0198
     11 C         145.7286  141.6508  164.0998 C.2     1  UNL1       -0.0042
     12 C         145.2139  140.9469  162.8794 C.2     1  UNL1        0.0006
     13 C         143.8959  141.3448  162.2840 C.2     1  UNL1        0.0111
     14 H         141.2076  140.6967  157.9586 H       1  UNL1        0.1246
     15 C         140.1700  142.4442  160.5719 C.ar    1  UNL1        0.2493
     16 N         139.1187  142.2830  161.6294 N.ar    1  UNL1       -0.1285
     17 N         138.6650  143.6512  162.0445 N.ar    1  UNL1       -0.1809
     18 C         137.6233  143.9585  163.0790 C.3     1  UNL1        0.1605
     19 C         139.4361  144.6580  161.2434 C.ar    1  UNL1        0.4389
     20 O         139.3007  146.1490  161.3362 O.2     1  UNL1       -0.2210
     21 O         140.3663  143.9121  160.3333 O.2     1  UNL1       -0.3896
     22 C         142.7766  138.3885  157.9908 C.ar    1  UNL1        0.1319
     23 N         142.3973  136.9424  158.1131 N.ar    1  UNL1       -0.2282
     24 C         142.8990  136.2270  156.8938 C.ar    1  UNL1        0.1171
     25 C         143.5883  137.2310  156.0181 C.ar    1  UNL1        0.0942
     26 N         143.5126  138.5668  156.6961 N.ar    1  UNL1       -0.3385
     27 H         143.8813  139.4123  156.3517 H       1  UNL1        0.1672
     28 C         142.7394  134.7644  156.6016 C.ar    1  UNL1        0.1006
     29 C         141.7865  134.3122  155.5351 C.ar    1  UNL1        0.0230
     30 C         141.6269  132.8497  155.2429 C.ar    1  UNL1        0.0328
     31 C         142.4201  131.8393  156.0173 C.ar    1  UNL1        0.1592
     32 F         142.2605  130.3766  155.7251 F       1  UNL1       -0.2025
     33 C         143.3730  132.2914  157.0838 C.ar    1  UNL1        0.1284
     34 N         143.5327  133.7539  157.3760 N.ar    1  UNL1       -0.2399
     35 N         138.0596  142.2098  157.3768 N.ar    1  UNL1       -0.2497
     36 C         139.3829  142.5123  158.0152 C.ar    1  UNL1        0.0944
     37 C         139.6766  141.4279  159.0092 C.ar    1  UNL1        0.0439
     38 C         138.5349  140.4553  158.9850 C.ar    1  UNL1        0.1194
     39 N         137.5355  140.9385  157.9761 N.ar    1  UNL1       -0.1679
     40 C         136.3338  142.4139  155.4455 C.3     1  UNL1        0.0284
     41 C         137.3797  143.0339  156.3239 C.3     1  UNL1        0.1276
@<TRIPOS>BOND
     1    40    41    1
     2    41    35    1
     3    35    36   ar
     4    36    37   ar
     5     1    37    1
     6     1    15    1
     7    15    16   ar
     8    16    17   ar
     9    17    18    1
    10    17    19   ar
    11    19    20    2
    12    19    21   ar
    13     1     2    1
    14     2     3    1
    15     3    22    1
    16    22    23   ar
    17    23    24   ar
    18    24    28    1
    19    28    29   ar
    20    29    30   ar
    21    30    31   ar
    22    31    32    1
    23    31    33   ar
    24    33    34   ar
    25    24    25   ar
    26    25    26   ar
    27     3     4    1
    28     4     5    1
    29     5     6    2
    30     6     7    1
    31     7     8    2
    32     8     9    1
    33     9    10    1
    34    10    11    2
    35    11    12    1
    36    12    13    2
    37    37    38   ar
    38    38    39   ar
    39    39    35   ar
    40     6     1    1
    41    13     8    1
    42    21    15   ar
    43    26    22   ar
    44    13     5    1
    45    34    28   ar
    46     2    14    1
    47    26    27    1
@<TRIPOS>MOLECULE
*****
 41 47 0 0 0
SMALL
GASTEIGER

@<TRIPOS>ATOM
      1 C         141.2596  141.3286  160.4007 C.3     1  UNL1        0.1707
      2 N         141.7731  140.4364  159.3098 N.3     1  UNL1       -0.2797
      3 C         141.6598  138.9467  159.4436 C.3     1  UNL1        0.1167
      4 C         141.0329  138.3492  160.6684 C.3     1  UNL1        0.0511
      5 C         140.5194  139.2414  161.7593 C.2     1  UNL1       -0.0037
      6 C         140.6327  140.7311  161.6255 C.2     1  UNL1        0.0800
      7 N         140.0415  141.3533  162.8556 N.2     1  UNL1       -0.2519
      8 C         139.5627  140.2482  163.7498 C.2     1  UNL1        0.0627
      9 C         138.8961  140.2617  165.0934 C.3     1  UNL1        0.0717
     10 C         138.5248  138.9700  165.7594 C.2     1  UNL1       -0.0198
     11 C         138.8201  137.6648  165.0818 C.2     1  UNL1       -0.0042
     12 C         139.4868  137.6512  163.7382 C.2     1  UNL1        0.0006
     13 C         139.8581  138.9429  163.0722 C.2     1  UNL1        0.0111
     14 H         142.7649  140.6475  159.1991 H       1  UNL1        0.1246
     15 C         140.9231  142.5792  161.1576 C.ar    1  UNL1        0.2493
     16 N         141.8171  143.2879  162.1313 N.ar    1  UNL1       -0.1285
     17 N         141.0800  144.4873  162.6492 N.ar    1  UNL1       -0.1809
     18 C         141.6010  145.4799  163.6458 C.3     1  UNL1        0.1605
     19 C         139.7304  144.5198  161.9954 C.ar    1  UNL1        0.4389
     20 O         138.6648  145.5506  162.2234 O.2     1  UNL1       -0.2210
     21 O         139.6334  143.3405  161.0735 O.2     1  UNL1       -0.3896
     22 C         142.1734  138.0543  158.3527 C.ar    1  UNL1        0.1319
     23 N         142.5464  136.6088  158.4984 N.ar    1  UNL1       -0.2282
     24 C         143.0077  136.1120  157.1603 C.ar    1  UNL1        0.1171
     25 C         142.9198  137.2505  156.1877 C.ar    1  UNL1        0.0942
     26 N         142.4042  138.4509  156.9246 N.ar    1  UNL1       -0.3385
     27 H         142.2451  139.3426  156.5387 H       1  UNL1        0.1672
     28 C         143.4748  134.7208  156.8495 C.ar    1  UNL1        0.1006
     29 C         143.2155  134.1273  155.4966 C.ar    1  UNL1        0.0230
     30 C         143.6826  132.7363  155.1857 C.ar    1  UNL1        0.0328
     31 C         144.4091  131.9387  156.2278 C.ar    1  UNL1        0.1592
     32 F         144.8763  130.5475  155.9170 F       1  UNL1       -0.2025
     33 C         144.6684  132.5322  157.5808 C.ar    1  UNL1        0.1284
     34 N         144.2013  133.9232  157.8916 N.ar    1  UNL1       -0.2399
     35 N         141.8751  143.9906  157.6438 N.ar    1  UNL1       -0.2497
     36 C         140.9701  143.0354  158.3640 C.ar    1  UNL1        0.0944
     37 C         141.7696  142.3604  159.4388 C.ar    1  UNL1        0.0439
     38 C         143.1687  142.8983  159.3828 C.ar    1  UNL1        0.1194
     39 N         143.2339  143.9058  158.2734 N.ar    1  UNL1       -0.1679
     40 C         140.6715  146.1086  156.7408 C.3     1  UNL1        0.0284
     41 C         141.4891  144.8751  156.4955 C.3     1  UNL1        0.1276
@<TRIPOS>BOND
     1    40    41    1
     2    41    35    1
     3    35    36   ar
     4    36    37   ar
     5     1    37    1
     6     1    15    1
     7    15    16   ar
     8    16    17   ar
     9    17    18    1
    10    17    19   ar
    11    19    20    2
    12    19    21   ar
    13     1     2    1
    14     2     3    1
    15     3    22    1
    16    22    23   ar
    17    23    24   ar
    18    24    28    1
    19    28    29   ar
    20    29    30   ar
    21    30    31   ar
    22    31    32    1
    23    31    33   ar
    24    33    34   ar
    25    24    25   ar
    26    25    26   ar
    27     3     4    1
    28     4     5    1
    29     5     6    2
    30     6     7    1
    31     7     8    2
    32     8     9    1
    33     9    10    1
    34    10    11    2
    35    11    12    1
    36    12    13    2
    37    37    38   ar
    38    38    39   ar
    39    39    35   ar
    40     6     1    1
    41    13     8    1
    42    21    15   ar
    43    26    22   ar
    44    13     5    1
    45    34    28   ar
    46     2    14    1
    47    26    27    1
@<TRIPOS>MOLECULE
*****
 41 47 0 0 0
SMALL
GASTEIGER

@<TRIPOS>ATOM
      1 C         141.2429  142.2751  159.4279 C.3     1  UNL1        0.1707
      2 N         139.9680  141.9315  158.7162 N.3     1  UNL1       -0.2797
      3 C         139.9883  141.6219  157.2486 C.3     1  UNL1        0.1167
      4 C         141.2835  141.6559  156.4928 C.3     1  UNL1        0.0511
      5 C         142.5584  141.9996  157.2044 C.2     1  UNL1       -0.0037
      6 C         142.5381  142.3092  158.6720 C.2     1  UNL1        0.0800
      7 N         143.9431  142.6122  159.1012 N.2     1  UNL1       -0.2519
      8 C         144.8317  142.4899  157.8989 C.2     1  UNL1        0.0627
      9 C         146.3095  142.6744  157.7202 C.3     1  UNL1        0.0717
     10 C         146.9315  142.4803  156.3691 C.2     1  UNL1       -0.0198
     11 C         146.0757  142.1016  155.1969 C.2     1  UNL1       -0.0042
     12 C         144.5979  141.9171  155.3756 C.2     1  UNL1        0.0006
     13 C         143.9759  142.1113  156.7266 C.2     1  UNL1        0.0111
     14 H         139.3382  142.7239  158.8413 H       1  UNL1        0.1246
     15 C         142.1813  142.6525  160.5357 C.ar    1  UNL1        0.2493
     16 N         142.8406  141.7052  161.4936 N.ar    1  UNL1       -0.1285
     17 N         143.6918  142.5107  162.4300 N.ar    1  UNL1       -0.1809
     18 C         144.5293  141.9666  163.5491 C.3     1  UNL1        0.1605
     19 C         143.5585  143.9558  162.0506 C.ar    1  UNL1        0.4389
     20 O         144.2392  145.1105  162.7239 O.2     1  UNL1       -0.2210
     21 O         142.6248  144.0434  160.8799 O.2     1  UNL1       -0.3896
     22 C         138.7134  141.2782  156.5369 C.ar    1  UNL1        0.1319
     23 N         137.3537  141.1791  157.1624 N.ar    1  UNL1       -0.2282
     24 C         136.3743  140.8129  156.0868 C.ar    1  UNL1        0.1171
     25 C         137.1288  140.6858  154.7967 C.ar    1  UNL1        0.0942
     26 N         138.5744  140.9733  155.0748 N.ar    1  UNL1       -0.3385
     27 H         139.3039  140.9637  154.4138 H       1  UNL1        0.1672
     28 C         134.8993  140.6097  156.2694 C.ar    1  UNL1        0.1006
     29 C         133.9280  141.3164  155.3711 C.ar    1  UNL1        0.0230
     30 C         132.4531  141.1131  155.5537 C.ar    1  UNL1        0.0328
     31 C         131.9496  140.2032  156.6346 C.ar    1  UNL1        0.1592
     32 F         130.4746  139.9999  156.8172 F       1  UNL1       -0.2025
     33 C         132.9209  139.4965  157.5329 C.ar    1  UNL1        0.1284
     34 N         134.3958  139.6997  157.3504 N.ar    1  UNL1       -0.2399
     35 N         138.7655  143.2671  162.2463 N.ar    1  UNL1       -0.2497
     36 C         139.6772  143.6359  161.1136 C.ar    1  UNL1        0.0944
     37 C         140.2736  142.3721  160.5685 C.ar    1  UNL1        0.0439
     38 C         139.7306  141.2223  161.3642 C.ar    1  UNL1        0.1194
     39 N         138.7985  141.7755  162.4012 N.ar    1  UNL1       -0.1679
     40 C         138.2719  144.3913  164.5360 C.3     1  UNL1        0.0284
     41 C         137.9619  144.2223  163.0781 C.3     1  UNL1        0.1276
@<TRIPOS>BOND
     1    40    41    1
     2    41    35    1
     3    35    36   ar
     4    36    37   ar
     5     1    37    1
     6     1    15    1
     7    15    16   ar
     8    16    17   ar
     9    17    18    1
    10    17    19   ar
    11    19    20    2
    12    19    21   ar
    13     1     2    1
    14     2     3    1
    15     3    22    1
    16    22    23   ar
    17    23    24   ar
    18    24    28    1
    19    28    29   ar
    20    29    30   ar
    21    30    31   ar
    22    31    32    1
    23    31    33   ar
    24    33    34   ar
    25    24    25   ar
    26    25    26   ar
    27     3     4    1
    28     4     5    1
    29     5     6    2
    30     6     7    1
    31     7     8    2
    32     8     9    1
    33     9    10    1
    34    10    11    2
    35    11    12    1
    36    12    13    2
    37    37    38   ar
    38    38    39   ar
    39    39    35   ar
    40     6     1    1
    41    13     8    1
    42    21    15   ar
    43    26    22   ar
    44    13     5    1
    45    34    28   ar
    46     2    14    1
    47    26    27    1
@<TRIPOS>MOLECULE
*****
 41 47 0 0 0
SMALL
GASTEIGER

@<TRIPOS>ATOM
      1 C         141.1119  140.2307  159.7209 C.3     1  UNL1        0.1707
      2 N         141.6620  138.9852  159.0917 N.3     1  UNL1       -0.2797
      3 C         142.3370  139.0559  157.7540 C.3     1  UNL1        0.1167
      4 C         142.4618  140.3721  157.0455 C.3     1  UNL1        0.0511
      5 C         141.9116  141.6176  157.6747 C.2     1  UNL1       -0.0037
      6 C         141.2367  141.5469  159.0124 C.2     1  UNL1        0.0800
      7 N         140.7945  142.9318  159.3822 N.2     1  UNL1       -0.2519
      8 C         141.1962  143.8583  158.2731 C.2     1  UNL1        0.0627
      9 C         141.0225  145.3366  158.0877 C.3     1  UNL1        0.0717
     10 C         141.5393  146.0028  156.8471 C.2     1  UNL1       -0.0198
     11 C         142.2297  145.1906  155.7918 C.2     1  UNL1       -0.0042
     12 C         142.4034  143.7123  155.9771 C.2     1  UNL1        0.0006
     13 C         141.8867  143.0461  157.2178 C.2     1  UNL1        0.0111
     14 H         140.8819  138.3354  158.9939 H       1  UNL1        0.1246
     15 C         140.4369  141.1274  160.7162 C.ar    1  UNL1        0.2493
     16 N         141.1136  141.8924  161.8146 N.ar    1  UNL1       -0.1285
     17 N         140.0616  142.6542  162.5650 N.ar    1  UNL1       -0.1809
     18 C         140.2955  143.5525  163.7433 C.3     1  UNL1        0.1605
     19 C         138.7348  142.3600  161.9302 C.ar    1  UNL1        0.4389
     20 O         137.4088  142.9124  162.3623 O.2     1  UNL1       -0.2210
     21 O         138.9668  141.4163  160.7876 O.2     1  UNL1       -0.3896
     22 C         142.8872  137.8103  157.1248 C.ar    1  UNL1        0.1319
     23 N         142.5584  136.4021  157.5232 N.ar    1  UNL1       -0.2282
     24 C         143.3308  135.4757  156.6314 C.ar    1  UNL1        0.1171
     25 C         144.1368  136.3114  155.6818 C.ar    1  UNL1        0.0942
     26 N         143.8627  137.7543  155.9867 N.ar    1  UNL1       -0.3385
     27 H         144.2543  138.5286  155.5216 H       1  UNL1        0.1672
     28 C         143.3021  133.9767  156.6805 C.ar    1  UNL1        0.1006
     29 C         144.3279  133.2329  157.4833 C.ar    1  UNL1        0.0230
     30 C         144.2992  131.7340  157.5325 C.ar    1  UNL1        0.0328
     31 C         143.2447  130.9790  156.7789 C.ar    1  UNL1        0.1592
     32 F         143.2160  129.4800  156.8281 F       1  UNL1       -0.2025
     33 C         142.2189  131.7228  155.9762 C.ar    1  UNL1        0.1284
     34 N         142.2476  133.2217  155.9270 N.ar    1  UNL1       -0.2399
     35 N         140.8430  137.8245  162.7546 N.ar    1  UNL1       -0.2497
     36 C         141.5823  138.8698  161.9729 C.ar    1  UNL1        0.0944
     37 C         140.7526  139.2259  160.7750 C.ar    1  UNL1        0.0439
     38 C         139.5007  138.4007  160.8164 C.ar    1  UNL1        0.1194
     39 N         139.5566  137.5346  162.0399 N.ar    1  UNL1       -0.1679
     40 C         141.9172  138.0207  165.1121 C.3     1  UNL1        0.0284
     41 C         141.3086  137.1820  164.0276 C.3     1  UNL1        0.1276
@<TRIPOS>BOND
     1    40    41    1
     2    41    35    1
     3    35    36   ar
     4    36    37   ar
     5     1    37    1
     6     1    15    1
     7    15    16   ar
     8    16    17   ar
     9    17    18    1
    10    17    19   ar
    11    19    20    2
    12    19    21   ar
    13     1     2    1
    14     2     3    1
    15     3    22    1
    16    22    23   ar
    17    23    24   ar
    18    24    28    1
    19    28    29   ar
    20    29    30   ar
    21    30    31   ar
    22    31    32    1
    23    31    33   ar
    24    33    34   ar
    25    24    25   ar
    26    25    26   ar
    27     3     4    1
    28     4     5    1
    29     5     6    2
    30     6     7    1
    31     7     8    2
    32     8     9    1
    33     9    10    1
    34    10    11    2
    35    11    12    1
    36    12    13    2
    37    37    38   ar
    38    38    39   ar
    39    39    35   ar
    40     6     1    1
    41    13     8    1
    42    21    15   ar
    43    26    22   ar
    44    13     5    1
    45    34    28   ar
    46     2    14    1
    47    26    27    1
@<TRIPOS>MOLECULE
*****
 41 47 0 0 0
SMALL
GASTEIGER

@<TRIPOS>ATOM
      1 C         141.5070  141.5236  160.8203 C.3     1  UNL1        0.1707
      2 N         141.2256  142.1812  159.5018 N.3     1  UNL1       -0.2797
      3 C         140.4072  143.4371  159.4496 C.3     1  UNL1        0.1167
      4 C         139.8702  144.0356  160.7159 C.3     1  UNL1        0.0511
      5 C         140.1516  143.3780  162.0344 C.2     1  UNL1       -0.0037
      6 C         140.9700  142.1221  162.0866 C.2     1  UNL1        0.0800
      7 N         141.0825  141.7015  163.5220 N.2     1  UNL1       -0.2519
      8 C         140.3337  142.6976  164.3570 C.2     1  UNL1        0.0627
      9 C         140.1014  142.7949  165.8357 C.3     1  UNL1        0.0717
     10 C         139.2937  143.9284  166.3949 C.2     1  UNL1       -0.0198
     11 C         138.7184  144.9645  165.4755 C.2     1  UNL1       -0.0042
     12 C         138.9506  144.8672  163.9968 C.2     1  UNL1        0.0006
     13 C         139.7583  143.7337  163.4376 C.2     1  UNL1        0.0111
     14 H         140.7433  141.4913  158.9257 H       1  UNL1        0.1246
     15 C         142.0391  140.5396  161.8196 C.ar    1  UNL1        0.2493
     16 N         141.2960  139.3637  162.3807 N.ar    1  UNL1       -0.1285
     17 N         142.2054  138.6561  163.3411 N.ar    1  UNL1       -0.1809
     18 C         141.8687  137.4258  164.1305 C.3     1  UNL1        0.1605
     19 C         143.5105  139.3947  163.3735 C.ar    1  UNL1        0.4389
     20 O         144.7081  139.0328  164.2010 O.2     1  UNL1       -0.2210
     21 O         143.4077  140.5588  162.4331 O.2     1  UNL1       -0.3896
     22 C         140.1257  144.0947  158.1311 C.ar    1  UNL1        0.1319
     23 N         140.0732  145.5719  157.8760 N.ar    1  UNL1       -0.2282
     24 C         139.7624  145.7807  156.4235 C.ar    1  UNL1        0.1171
     25 C         139.6229  144.4326  155.7809 C.ar    1  UNL1        0.0942
     26 N         139.8474  143.3906  156.8362 N.ar    1  UNL1       -0.3385
     27 H         139.8173  142.4157  156.7025 H       1  UNL1        0.1672
     28 C         139.6168  147.1052  155.7346 C.ar    1  UNL1        0.1006
     29 C         140.2750  147.3363  154.4066 C.ar    1  UNL1        0.0230
     30 C         140.1294  148.6607  153.7177 C.ar    1  UNL1        0.0328
     31 C         139.3256  149.7541  154.3567 C.ar    1  UNL1        0.1592
     32 F         139.1800  151.0786  153.6678 F       1  UNL1       -0.2025
     33 C         138.6675  149.5231  155.6847 C.ar    1  UNL1        0.1284
     34 N         138.8131  148.1987  156.3736 N.ar    1  UNL1       -0.2399
     35 N         142.7266  138.7066  158.4450 N.ar    1  UNL1       -0.2497
     36 C         141.6611  139.3349  159.2936 C.ar    1  UNL1        0.0944
     37 C         142.2288  140.5834  159.9011 C.ar    1  UNL1        0.0439
     38 C         143.6450  140.7267  159.4279 C.ar    1  UNL1        0.1194
     39 N         143.9526  139.5667  158.5280 N.ar    1  UNL1       -0.1679
     40 C         141.3882  137.2274  156.7804 C.3     1  UNL1        0.0284
     41 C         142.5898  137.4403  157.6525 C.3     1  UNL1        0.1276
@<TRIPOS>BOND
     1    40    41    1
     2    41    35    1
     3    35    36   ar
     4    36    37   ar
     5     1    37    1
     6     1    15    1
     7    15    16   ar
     8    16    17   ar
     9    17    18    1
    10    17    19   ar
    11    19    20    2
    12    19    21   ar
    13     1     2    1
    14     2     3    1
    15     3    22    1
    16    22    23   ar
    17    23    24   ar
    18    24    28    1
    19    28    29   ar
    20    29    30   ar
    21    30    31   ar
    22    31    32    1
    23    31    33   ar
    24    33    34   ar
    25    24    25   ar
    26    25    26   ar
    27     3     4    1
    28     4     5    1
    29     5     6    2
    30     6     7    1
    31     7     8    2
    32     8     9    1
    33     9    10    1
    34    10    11    2
    35    11    12    1
    36    12    13    2
    37    37    38   ar
    38    38    39   ar
    39    39    35   ar
    40     6     1    1
    41    13     8    1
    42    21    15   ar
    43    26    22   ar
    44    13     5    1
    45    34    28   ar
    46     2    14    1
    47    26    27    1
@<TRIPOS>MOLECULE
*****
 41 47 0 0 0
SMALL
GASTEIGER

@<TRIPOS>ATOM
      1 C         142.0397  141.1158  159.8699 C.3     1  UNL1        0.1707
      2 N         142.0522  139.7547  159.2398 N.3     1  UNL1       -0.2797
      3 C         141.5755  139.5770  157.8287 C.3     1  UNL1        0.1167
      4 C         141.0862  140.7606  157.0477 C.3     1  UNL1        0.0511
      5 C         141.0737  142.1217  157.6778 C.2     1  UNL1       -0.0037
      6 C         141.5505  142.2994  159.0889 C.2     1  UNL1        0.0800
      7 N         141.4223  143.7515  159.4421 N.2     1  UNL1       -0.2519
      8 C         140.8664  144.4714  158.2493 C.2     1  UNL1        0.0627
      9 C         140.5285  145.9140  158.0152 C.3     1  UNL1        0.0717
     10 C         139.9752  146.3492  156.6907 C.2     1  UNL1       -0.0198
     11 C         139.7597  145.3419  155.6003 C.2     1  UNL1       -0.0042
     12 C         140.0976  143.8994  155.8344 C.2     1  UNL1        0.0006
     13 C         140.6509  143.4641  157.1589 C.2     1  UNL1        0.0111
     14 H         141.4712  139.1541  159.8247 H       1  UNL1        0.1246
     15 C         142.2188  142.1964  160.8948 C.ar    1  UNL1        0.2493
     16 N         141.2151  142.6017  161.9331 N.ar    1  UNL1       -0.1285
     17 N         141.8090  143.7171  162.7414 N.ar    1  UNL1       -0.1809
     18 C         141.1481  144.4244  163.8872 C.3     1  UNL1        0.1605
     19 C         143.1797  144.0011  162.2025 C.ar    1  UNL1        0.4389
     20 O         144.1303  145.0421  162.7150 O.2     1  UNL1       -0.2210
     21 O         143.4330  143.0611  161.0613 O.2     1  UNL1       -0.3896
     22 C         141.5879  138.2158  157.1985 C.ar    1  UNL1        0.1319
     23 N         142.6039  137.1400  157.4440 N.ar    1  UNL1       -0.2282
     24 C         142.2305  135.9508  156.6095 C.ar    1  UNL1        0.1171
     25 C         140.9838  136.2917  155.8484 C.ar    1  UNL1        0.0942
     26 N         140.5866  137.6916  156.2124 N.ar    1  UNL1       -0.3385
     27 H         139.8058  138.1804  155.8651 H       1  UNL1        0.1672
     28 C         142.9735  134.6491  156.5471 C.ar    1  UNL1        0.1006
     29 C         142.9207  133.8143  155.3020 C.ar    1  UNL1        0.0230
     30 C         143.6636  132.5128  155.2396 C.ar    1  UNL1        0.0328
     31 C         144.4594  132.0460  156.4223 C.ar    1  UNL1        0.1592
     32 F         145.2024  130.7444  156.3599 F       1  UNL1       -0.2025
     33 C         144.5122  132.8808  157.6674 C.ar    1  UNL1        0.1284
     34 N         143.7693  134.1824  157.7298 N.ar    1  UNL1       -0.2399
     35 N         142.7423  138.8996  162.9779 N.ar    1  UNL1       -0.2497
     36 C         141.7867  139.5668  162.0335 C.ar    1  UNL1        0.0944
     37 C         142.5911  140.3076  161.0068 C.ar    1  UNL1        0.0439
     38 C         144.0438  140.0982  161.3166 C.ar    1  UNL1        0.1194
     39 N         144.1372  139.2280  162.5349 N.ar    1  UNL1       -0.1679
     40 C         141.1092  137.2381  164.1280 C.3     1  UNL1        0.0284
     41 C         142.3685  138.0526  164.1582 C.3     1  UNL1        0.1276
@<TRIPOS>BOND
     1    40    41    1
     2    41    35    1
     3    35    36   ar
     4    36    37   ar
     5     1    37    1
     6     1    15    1
     7    15    16   ar
     8    16    17   ar
     9    17    18    1
    10    17    19   ar
    11    19    20    2
    12    19    21   ar
    13     1     2    1
    14     2     3    1
    15     3    22    1
    16    22    23   ar
    17    23    24   ar
    18    24    28    1
    19    28    29   ar
    20    29    30   ar
    21    30    31   ar
    22    31    32    1
    23    31    33   ar
    24    33    34   ar
    25    24    25   ar
    26    25    26   ar
    27     3     4    1
    28     4     5    1
    29     5     6    2
    30     6     7    1
    31     7     8    2
    32     8     9    1
    33     9    10    1
    34    10    11    2
    35    11    12    1
    36    12    13    2
    37    37    38   ar
    38    38    39   ar
    39    39    35   ar
    40     6     1    1
    41    13     8    1
    42    21    15   ar
    43    26    22   ar
    44    13     5    1
    45    34    28   ar
    46     2    14    1
    47    26    27    1
@<TRIPOS>MOLECULE
*****
 41 47 0 0 0
SMALL
GASTEIGER

@<TRIPOS>ATOM
      1 C         140.1734  140.5524  160.1617 C.3     1  UNL1        0.1707
      2 N         140.8339  140.5295  161.5083 N.3     1  UNL1       -0.2797
      3 C         141.9298  139.5446  161.7893 C.3     1  UNL1        0.1167
      4 C         142.3651  138.5826  160.7239 C.3     1  UNL1        0.0511
      5 C         141.7046  138.6055  159.3774 C.2     1  UNL1       -0.0037
      6 C         140.6087  139.5904  159.0963 C.2     1  UNL1        0.0800
      7 N         140.1464  139.3791  157.6851 N.2     1  UNL1       -0.2519
      8 C         140.9566  138.2636  157.0940 C.2     1  UNL1        0.0627
      9 C         140.9418  137.6215  155.7385 C.3     1  UNL1        0.0717
     10 C         141.8900  136.5013  155.4289 C.2     1  UNL1       -0.0198
     11 C         142.8530  136.0232  156.4748 C.2     1  UNL1       -0.0042
     12 C         142.8678  136.6653  157.8303 C.2     1  UNL1        0.0006
     13 C         141.9196  137.7855  158.1399 C.2     1  UNL1        0.0111
     14 H         140.0990  140.3558  162.1939 H       1  UNL1        0.1246
     15 C         139.2503  140.9584  159.0512 C.ar    1  UNL1        0.2493
     16 N         139.4228  142.1455  158.1509 N.ar    1  UNL1       -0.1285
     17 N         138.2717  142.1692  157.1893 N.ar    1  UNL1       -0.1809
     18 C         138.0445  143.1868  156.1110 C.3     1  UNL1        0.1605
     19 C         137.3879  140.9966  157.4955 C.ar    1  UNL1        0.4389
     20 O         136.1215  140.6357  156.7770 O.2     1  UNL1       -0.2210
     21 O         137.9927  140.2482  158.6462 O.2     1  UNL1       -0.3896
     22 C         142.5904  139.5216  163.1359 C.ar    1  UNL1        0.1319
     23 N         142.0344  140.1055  164.4007 N.ar    1  UNL1       -0.2282
     24 C         143.0233  139.8555  165.5006 C.ar    1  UNL1        0.1171
     25 C         144.1905  139.1172  164.9154 C.ar    1  UNL1        0.0942
     26 N         143.9230  138.9108  163.4540 N.ar    1  UNL1       -0.3385
     27 H         144.5176  138.4546  162.8156 H       1  UNL1        0.1672
     28 C         142.8716  140.2710  166.9339 C.ar    1  UNL1        0.1006
     29 C         142.7434  141.7239  167.2841 C.ar    1  UNL1        0.0230
     30 C         142.5917  142.1394  168.7174 C.ar    1  UNL1        0.0328
     31 C         142.5681  141.1020  169.8005 C.ar    1  UNL1        0.1592
     32 F         142.4164  141.5174  171.2338 F       1  UNL1       -0.2025
     33 C         142.6963  139.6491  169.4503 C.ar    1  UNL1        0.1284
     34 N         142.8480  139.2336  168.0170 N.ar    1  UNL1       -0.2399
     35 N         138.8832  143.7592  161.9273 N.ar    1  UNL1       -0.2497
     36 C         139.9909  142.9615  161.3054 C.ar    1  UNL1        0.0944
     37 C         139.4175  141.6554  160.8415 C.ar    1  UNL1        0.0439
     38 C         137.9554  141.6459  161.1766 C.ar    1  UNL1        0.1194
     39 N         137.6252  142.9461  161.8477 N.ar    1  UNL1       -0.1679
     40 C         139.6676  146.2292  161.7433 C.3     1  UNL1        0.0284
     41 C         139.0110  145.1295  162.5240 C.3     1  UNL1        0.1276
@<TRIPOS>BOND
     1    40    41    1
     2    41    35    1
     3    35    36   ar
     4    36    37   ar
     5     1    37    1
     6     1    15    1
     7    15    16   ar
     8    16    17   ar
     9    17    18    1
    10    17    19   ar
    11    19    20    2
    12    19    21   ar
    13     1     2    1
    14     2     3    1
    15     3    22    1
    16    22    23   ar
    17    23    24   ar
    18    24    28    1
    19    28    29   ar
    20    29    30   ar
    21    30    31   ar
    22    31    32    1
    23    31    33   ar
    24    33    34   ar
    25    24    25   ar
    26    25    26   ar
    27     3     4    1
    28     4     5    1
    29     5     6    2
    30     6     7    1
    31     7     8    2
    32     8     9    1
    33     9    10    1
    34    10    11    2
    35    11    12    1
    36    12    13    2
    37    37    38   ar
    38    38    39   ar
    39    39    35   ar
    40     6     1    1
    41    13     8    1
    42    21    15   ar
    43    26    22   ar
    44    13     5    1
    45    34    28   ar
    46     2    14    1
    47    26    27    1
@<TRIPOS>MOLECULE
*****
 41 47 0 0 0
SMALL
GASTEIGER

@<TRIPOS>ATOM
      1 C         142.6781  140.2470  159.2901 C.3     1  UNL1        0.1707
      2 N         143.4685  140.6244  158.0724 N.3     1  UNL1       -0.2797
      3 C         144.3190  141.8599  158.0836 C.3     1  UNL1        0.1167
      4 C         144.3792  142.7180  159.3126 C.3     1  UNL1        0.0511
      5 C         143.5888  142.3405  160.5303 C.2     1  UNL1       -0.0037
      6 C         142.7383  141.1050  160.5191 C.2     1  UNL1        0.0800
      7 N         142.0746  140.9871  161.8590 N.2     1  UNL1       -0.2519
      8 C         142.5149  142.1497  162.6984 C.2     1  UNL1        0.0627
      9 C         142.1845  142.5547  164.1043 C.3     1  UNL1        0.0717
     10 C         142.7901  143.7962  164.6891 C.2     1  UNL1       -0.0198
     11 C         143.7259  144.6327  163.8678 C.2     1  UNL1       -0.0042
     12 C         144.0563  144.2277  162.4619 C.2     1  UNL1        0.0006
     13 C         143.4508  142.9862  161.8771 C.2     1  UNL1        0.0111
     14 H         142.8000  140.7340  157.3098 H       1  UNL1        0.1246
     15 C         141.7556  139.4789  160.1896 C.ar    1  UNL1        0.2493
     16 N         140.2637  139.6212  160.2514 N.ar    1  UNL1       -0.1285
     17 N         139.7492  138.6638  161.2852 N.ar    1  UNL1       -0.1809
     18 C         138.3129  138.4739  161.6737 C.3     1  UNL1        0.1605
     19 C         140.9231  137.9299  161.8624 C.ar    1  UNL1        0.4389
     20 O         140.8668  136.8770  162.9293 O.2     1  UNL1       -0.2210
     21 O         142.1632  138.4336  161.1852 O.2     1  UNL1       -0.3896
     22 C         145.1094  142.2375  156.8659 C.ar    1  UNL1        0.1319
     23 N         146.5858  142.0487  156.6797 N.ar    1  UNL1       -0.2282
     24 C         146.9510  142.5646  155.3193 C.ar    1  UNL1        0.1171
     25 C         145.7004  143.0721  154.6649 C.ar    1  UNL1        0.0942
     26 N         144.5622  142.8700  155.6207 N.ar    1  UNL1       -0.3385
     27 H         143.6212  143.1102  155.4592 H       1  UNL1        0.1672
     28 C         148.3256  142.5717  154.7189 C.ar    1  UNL1        0.1006
     29 C         149.4195  141.7544  155.3398 C.ar    1  UNL1        0.0230
     30 C         150.7940  141.7614  154.7394 C.ar    1  UNL1        0.0328
     31 C         151.0747  142.5857  153.5181 C.ar    1  UNL1        0.1592
     32 F         152.4493  142.5928  152.9176 F       1  UNL1       -0.2025
     33 C         149.9809  143.4030  152.8972 C.ar    1  UNL1        0.1284
     34 N         148.6063  143.3960  153.4975 N.ar    1  UNL1       -0.2399
     35 N         142.2663  136.9731  157.2462 N.ar    1  UNL1       -0.2497
     36 C         142.9711  137.7844  158.2928 C.ar    1  UNL1        0.0944
     37 C         142.2976  139.1222  158.3737 C.ar    1  UNL1        0.0439
     38 C         141.1766  139.1378  157.3770 C.ar    1  UNL1        0.1194
     39 N         141.1573  137.8096  156.6802 N.ar    1  UNL1       -0.1679
     40 C         143.6942  135.3289  155.8293 C.3     1  UNL1        0.0284
     41 C         142.6103  135.5715  156.8374 C.3     1  UNL1        0.1276
@<TRIPOS>BOND
     1    40    41    1
     2    41    35    1
     3    35    36   ar
     4    36    37   ar
     5     1    37    1
     6     1    15    1
     7    15    16   ar
     8    16    17   ar
     9    17    18    1
    10    17    19   ar
    11    19    20    2
    12    19    21   ar
    13     1     2    1
    14     2     3    1
    15     3    22    1
    16    22    23   ar
    17    23    24   ar
    18    24    28    1
    19    28    29   ar
    20    29    30   ar
    21    30    31   ar
    22    31    32    1
    23    31    33   ar
    24    33    34   ar
    25    24    25   ar
    26    25    26   ar
    27     3     4    1
    28     4     5    1
    29     5     6    2
    30     6     7    1
    31     7     8    2
    32     8     9    1
    33     9    10    1
    34    10    11    2
    35    11    12    1
    36    12    13    2
    37    37    38   ar
    38    38    39   ar
    39    39    35   ar
    40     6     1    1
    41    13     8    1
    42    21    15   ar
    43    26    22   ar
    44    13     5    1
    45    34    28   ar
    46     2    14    1
    47    26    27    1
