@<TRIPOS>MOLECULE
*****
 63 69 0 0 0
SMALL
GASTEIGER

@<TRIPOS>ATOM
      1 C         141.2754  141.6851  155.4136 C.ar    1  UNL1       -0.0000
      2 C         142.5862  141.0691  155.0231 C.ar    1  UNL1       -0.0000
      3 C         142.8229  139.6048  155.2463 C.ar    1  UNL1       -0.0003
      4 C         141.7488  138.7564  155.8600 C.ar    1  UNL1       -0.0035
      5 C         140.4380  139.3724  156.2505 C.ar    1  UNL1       -0.0003
      6 C         140.2013  140.8367  156.0273 C.ar    1  UNL1       -0.0000
      7 C         141.9855  137.2921  156.0832 C.2     1  UNL1       -0.0137
      8 C         142.9234  136.8400  157.1630 C.2     1  UNL1        0.0001
      9 C         143.1600  135.3757  157.3861 C.2     1  UNL1        0.0498
     10 C         142.4588  134.3636  156.5294 C.2     1  UNL1        0.2318
     11 N         142.4936  132.8640  156.5153 N.2     1  UNL1       -0.0334
     12 C         141.5772  132.3893  155.4268 C.2     1  UNL1        0.3691
     13 N         140.9761  133.5955  154.7682 N.2     1  UNL1       -0.0373
     14 C         141.5210  134.8157  155.4497 C.2     1  UNL1        0.2175
     15 C         141.2843  136.2799  155.2265 C.3     1  UNL1        0.1040
     16 C         141.3090  130.9595  155.0610 C.3     1  UNL1        0.1878
     17 C         139.9647  130.3614  154.7690 C.3     1  UNL1        0.0344
     18 C         140.1630  128.9090  154.4506 C.3     1  UNL1        0.0221
     19 C         139.0840  127.9284  154.0988 C.3     1  UNL1        0.0018
     20 C         141.6297  128.6096  154.5457 C.3     1  UNL1        0.0940
     21 N         142.3380  129.8770  154.9230 N.am    1  UNL1       -0.2691
     22 C         143.8158  130.0340  155.1266 C.2     1  UNL1        0.2440
     23 O         144.3831  131.3703  155.5041 O.2     1  UNL1       -0.2731
     24 C         144.7264  128.8547  154.9525 C.3     1  UNL1        0.1512
     25 N         145.5192  128.3409  156.1177 N.am    1  UNL1       -0.2640
     26 C         144.8636  127.4629  157.1420 C.2     1  UNL1        0.4021
     27 O         143.4153  127.0988  157.0013 O.2     1  UNL1       -0.2264
     28 H         146.4697  128.5798  156.2100 H       1  UNL1        0.1532
     29 O         145.6563  126.9491  158.3072 O.3     1  UNL1       -0.4306
     30 C         146.0773  127.8867  159.3997 C.3     1  UNL1        0.2573
     31 C         144.8441  128.1893  153.6134 C.3     1  UNL1        0.0270
     32 C         144.8944  126.6929  153.5212 C.3     1  UNL1        0.0022
     33 C         144.9115  129.0202  152.3664 C.3     1  UNL1        0.0022
     34 C         140.5654  146.0780  154.7441 C.ar    1  UNL1        0.0192
     35 C         140.4145  145.1119  153.6065 C.ar    1  UNL1        0.0015
     36 C         140.6512  143.6476  153.8297 C.ar    1  UNL1        0.0000
     37 C         141.0387  143.1493  155.1904 C.ar    1  UNL1        0.0000
     38 C         141.1896  144.1153  156.3280 C.ar    1  UNL1        0.0000
     39 C         140.9530  145.5797  156.1048 C.ar    1  UNL1        0.0015
     40 C         140.6766  149.8769  153.9562 C.ar    1  UNL1        0.1353
     41 N         141.3417  148.5345  154.0318 N.ar    1  UNL1       -0.2295
     42 C         140.3288  147.5422  154.5209 C.ar    1  UNL1        0.0996
     43 C         139.0376  148.2713  154.7476 C.ar    1  UNL1        0.0927
     44 N         139.2525  149.7142  154.3986 N.ar    1  UNL1       -0.3383
     45 H         138.5775  150.4290  154.4508 H       1  UNL1        0.1672
     46 C         139.3907  152.8643  154.2226 C.2     1  UNL1        0.2439
     47 O         138.5098  151.7715  154.7516 O.2     1  UNL1       -0.2731
     48 N         140.7312  152.5303  153.6381 N.am    1  UNL1       -0.2730
     49 C         141.7158  153.5109  153.0734 C.3     1  UNL1        0.0938
     50 C         142.9155  152.7437  152.6019 C.3     1  UNL1        0.0220
     51 C         144.1429  153.3286  151.9683 C.3     1  UNL1        0.0018
     52 C         142.6722  151.2891  152.8752 C.3     1  UNL1        0.0293
     53 C         141.3222  151.1572  153.5156 C.3     1  UNL1        0.1319
     54 C         138.9312  154.2912  154.2782 C.3     1  UNL1        0.1512
     55 C         137.3611  155.4534  155.9910 C.2     1  UNL1        0.4021
     56 O         136.2050  155.2754  155.0520 O.2     1  UNL1       -0.2264
     57 N         138.7242  154.9613  155.6041 N.am    1  UNL1       -0.2640
     58 H         139.4829  155.0782  156.2204 H       1  UNL1        0.1532
     59 C         138.1819  155.9776  158.3997 C.3     1  UNL1        0.2573
     60 O         137.1541  156.1236  157.3169 O.3     1  UNL1       -0.4306
     61 C         138.6786  155.0478  153.0079 C.3     1  UNL1        0.0270
     62 C         137.7526  154.4847  151.9710 C.3     1  UNL1        0.0022
     63 C         139.3521  156.3677  152.7745 C.3     1  UNL1        0.0022
@<TRIPOS>BOND
     1    59    60    1
     2    60    55    1
     3    55    56    2
     4    55    57   am
     5    54    57    1
     6    54    46    1
     7    46    47    2
     8    46    48   am
     9    48    49    1
    10    49    50    1
    11    50    51    1
    12    50    52    1
    13    52    53    1
    14    53    40    1
    15    40    41   ar
    16    41    42   ar
    17    42    34    1
    18    34    35   ar
    19    35    36   ar
    20    36    37   ar
    21    37     1    1
    22     1     2   ar
    23     2     3   ar
    24     3     4   ar
    25     4     7    1
    26     7     8    2
    27     8     9    1
    28     9    10    2
    29    10    11    1
    30    11    12    2
    31    16    12    1
    32    16    17    1
    33    17    18    1
    34    18    19    1
    35    18    20    1
    36    20    21    1
    37    21    22   am
    38    22    23    2
    39    22    24    1
    40    24    25    1
    41    25    26   am
    42    26    27    2
    43    26    29    1
    44    29    30    1
    45    24    31    1
    46    31    32    1
    47    31    33    1
    48    12    13    1
    49    13    14    2
    50    14    15    1
    51     4     5   ar
    52     5     6   ar
    53    37    38   ar
    54    38    39   ar
    55    42    43   ar
    56    43    44   ar
    57    54    61    1
    58    61    62    1
    59    61    63    1
    60    53    48    1
    61    44    40   ar
    62    39    34   ar
    63     6     1   ar
    64    15     7    1
    65    14    10    1
    66    21    16    1
    67    57    58    1
    68    25    28    1
    69    44    45    1
@<TRIPOS>MOLECULE
*****
 63 69 0 0 0
SMALL
GASTEIGER

@<TRIPOS>ATOM
      1 C         141.4106  141.1379  155.3558 C.ar    1  UNL1       -0.0000
      2 C         142.7802  140.6447  154.9937 C.ar    1  UNL1       -0.0000
      3 C         143.1180  139.1910  155.1443 C.ar    1  UNL1       -0.0003
      4 C         142.0863  138.2305  155.6571 C.ar    1  UNL1       -0.0035
      5 C         140.7168  138.7236  156.0192 C.ar    1  UNL1       -0.0003
      6 C         140.3789  140.1773  155.8685 C.ar    1  UNL1       -0.0000
      7 C         142.4242  136.7768  155.8077 C.2     1  UNL1       -0.0137
      8 C         142.7988  136.2294  157.1531 C.2     1  UNL1        0.0001
      9 C         143.1367  134.7757  157.3037 C.2     1  UNL1        0.0498
     10 C         143.0999  133.8695  156.1089 C.2     1  UNL1        0.2318
     11 N         143.3810  132.4045  155.9514 N.2     1  UNL1       -0.0334
     12 C         143.1801  132.0465  154.5087 C.2     1  UNL1        0.3691
     13 N         142.7748  133.2903  153.7746 N.2     1  UNL1       -0.0373
     14 C         142.7253  134.4169  154.7636 C.2     1  UNL1        0.2175
     15 C         142.3874  135.8706  154.6130 C.3     1  UNL1        0.1040
     16 C         143.3539  130.6840  153.9058 C.3     1  UNL1        0.1878
     17 C         144.5624  130.1961  153.1631 C.3     1  UNL1        0.0344
     18 C         144.3051  128.7807  152.7381 C.3     1  UNL1        0.0221
     19 C         145.2494  127.9059  151.9683 C.3     1  UNL1        0.0018
     20 C         142.9377  128.3939  153.2182 C.3     1  UNL1        0.0940
     21 N         142.3498  129.5703  153.9399 N.am    1  UNL1       -0.2691
     22 C         140.9956  129.6234  154.5827 C.2     1  UNL1        0.2440
     23 O         140.5412  130.8757  155.2722 O.2     1  UNL1       -0.2731
     24 C         140.0956  128.4242  154.5360 C.3     1  UNL1        0.1512
     25 N         139.4088  128.0512  153.2557 N.am    1  UNL1       -0.2640
     26 C         138.2989  127.0424  153.2664 C.2     1  UNL1        0.4021
     27 O         137.8757  126.4064  154.5573 O.2     1  UNL1       -0.2264
     28 H         139.6866  128.4686  152.4084 H       1  UNL1        0.1532
     29 O         137.6121  126.6694  151.9860 O.3     1  UNL1       -0.4306
     30 C         136.1282  126.4513  151.9668 C.3     1  UNL1        0.2573
     31 C         139.8825  127.5981  155.7697 C.3     1  UNL1        0.0270
     32 C         140.8445  126.4992  156.1119 C.3     1  UNL1        0.0022
     33 C         138.7074  127.8707  156.6613 C.3     1  UNL1        0.0022
     34 C         140.3972  145.4989  154.9038 C.ar    1  UNL1        0.0192
     35 C         140.5781  144.6409  153.6868 C.ar    1  UNL1        0.0015
     36 C         140.9159  143.1872  153.8374 C.ar    1  UNL1        0.0000
     37 C         141.0728  142.5915  155.2051 C.ar    1  UNL1        0.0000
     38 C         140.8920  143.4495  156.4221 C.ar    1  UNL1        0.0000
     39 C         140.5541  144.9032  156.2715 C.ar    1  UNL1        0.0015
     40 C         140.2171  149.3163  154.2257 C.ar    1  UNL1        0.1353
     41 N         140.9570  148.0121  154.1862 N.ar    1  UNL1       -0.2295
     42 C         140.0594  146.9525  154.7532 C.ar    1  UNL1        0.0996
     43 C         138.7646  147.6019  155.1430 C.ar    1  UNL1        0.0927
     44 N         138.8620  149.0627  154.8170 N.ar    1  UNL1       -0.3383
     45 H         138.1599  149.7368  154.9651 H       1  UNL1        0.1672
     46 C         138.8152  152.2197  154.7297 C.2     1  UNL1        0.2439
     47 O         138.0588  151.0664  155.3194 O.2     1  UNL1       -0.2731
     48 N         140.0959  151.9760  153.9879 N.am    1  UNL1       -0.2730
     49 C         140.9570  153.0240  153.3476 C.3     1  UNL1        0.0938
     50 C         142.1336  152.3371  152.7201 C.3     1  UNL1        0.0220
     51 C         143.2485  153.0055  151.9714 C.3     1  UNL1        0.0018
     52 C         141.9997  150.8646  152.9726 C.3     1  UNL1        0.0293
     53 C         140.7403  150.6414  153.7562 C.3     1  UNL1        0.1319
     54 C         138.2908  153.6169  154.8820 C.3     1  UNL1        0.1512
     55 C         139.2986  155.4863  156.3784 C.2     1  UNL1        0.4021
     56 O         140.1251  155.9661  155.2224 O.2     1  UNL1       -0.2264
     57 N         138.3815  154.3117  156.2083 N.am    1  UNL1       -0.2640
     58 H         137.8390  153.9967  156.9671 H       1  UNL1        0.1532
     59 C         138.2071  156.1922  158.6280 C.3     1  UNL1        0.2573
     60 O         139.3893  156.1810  157.7048 O.3     1  UNL1       -0.4306
     61 C         137.6758  154.3192  153.7079 C.3     1  UNL1        0.0270
     62 C         136.6369  155.3786  153.9276 C.3     1  UNL1        0.0022
     63 C         138.0997  153.9622  152.3140 C.3     1  UNL1        0.0022
@<TRIPOS>BOND
     1    59    60    1
     2    60    55    1
     3    55    56    2
     4    55    57   am
     5    54    57    1
     6    54    46    1
     7    46    47    2
     8    46    48   am
     9    48    49    1
    10    49    50    1
    11    50    51    1
    12    50    52    1
    13    52    53    1
    14    53    40    1
    15    40    41   ar
    16    41    42   ar
    17    42    34    1
    18    34    35   ar
    19    35    36   ar
    20    36    37   ar
    21    37     1    1
    22     1     2   ar
    23     2     3   ar
    24     3     4   ar
    25     4     7    1
    26     7     8    2
    27     8     9    1
    28     9    10    2
    29    10    11    1
    30    11    12    2
    31    16    12    1
    32    16    17    1
    33    17    18    1
    34    18    19    1
    35    18    20    1
    36    20    21    1
    37    21    22   am
    38    22    23    2
    39    22    24    1
    40    24    25    1
    41    25    26   am
    42    26    27    2
    43    26    29    1
    44    29    30    1
    45    24    31    1
    46    31    32    1
    47    31    33    1
    48    12    13    1
    49    13    14    2
    50    14    15    1
    51     4     5   ar
    52     5     6   ar
    53    37    38   ar
    54    38    39   ar
    55    42    43   ar
    56    43    44   ar
    57    54    61    1
    58    61    62    1
    59    61    63    1
    60    53    48    1
    61    44    40   ar
    62    39    34   ar
    63     6     1   ar
    64    15     7    1
    65    14    10    1
    66    21    16    1
    67    57    58    1
    68    25    28    1
    69    44    45    1
@<TRIPOS>MOLECULE
*****
 63 69 0 0 0
SMALL
GASTEIGER

@<TRIPOS>ATOM
      1 C         140.5560  142.3013  155.4690 C.ar    1  UNL1       -0.0000
      2 C         139.5845  142.6530  156.5565 C.ar    1  UNL1       -0.0000
      3 C         139.2164  144.0869  156.7985 C.ar    1  UNL1       -0.0003
      4 C         139.8198  145.1690  155.9530 C.ar    1  UNL1       -0.0035
      5 C         140.7913  144.8174  154.8656 C.ar    1  UNL1       -0.0003
      6 C         141.1594  143.3834  154.6236 C.ar    1  UNL1       -0.0000
      7 C         139.4518  146.6029  156.1950 C.2     1  UNL1       -0.0137
      8 C         139.0232  147.0468  157.5622 C.2     1  UNL1        0.0001
      9 C         138.6551  148.4806  157.8042 C.2     1  UNL1        0.0498
     10 C         138.7156  149.4706  156.6789 C.2     1  UNL1        0.2318
     11 N         138.4143  150.9388  156.6165 N.2     1  UNL1       -0.0334
     12 C         138.6566  151.4022  155.2106 C.2     1  UNL1        0.3691
     13 N         139.1077  150.2206  154.4042 N.2     1  UNL1       -0.0373
     14 C         139.1442  149.0268  155.3117 C.2     1  UNL1        0.2175
     15 C         139.5122  147.5930  155.0698 C.3     1  UNL1        0.1040
     16 C         138.4790  152.8017  154.7006 C.3     1  UNL1        0.1878
     17 C         138.4090  153.2127  153.2597 C.3     1  UNL1        0.0344
     18 C         138.2270  154.7009  153.2106 C.3     1  UNL1        0.0221
     19 C         138.1083  155.5340  151.9690 C.3     1  UNL1        0.0018
     20 C         138.1845  155.2095  154.6211 C.3     1  UNL1        0.0940
     21 N         138.3403  154.0356  155.5420 N.am    1  UNL1       -0.2691
     22 C         138.3548  154.0869  157.0410 C.2     1  UNL1        0.2440
     23 O         138.5197  152.8238  157.8331 O.2     1  UNL1       -0.2731
     24 C         138.2044  155.4014  157.7480 C.3     1  UNL1        0.1512
     25 N         136.8648  156.0738  157.8041 N.am    1  UNL1       -0.2640
     26 C         135.8852  155.7056  158.8787 C.2     1  UNL1        0.4021
     27 O         136.2453  154.6649  159.8972 O.2     1  UNL1       -0.2264
     28 H         136.6284  156.7569  157.1356 H       1  UNL1        0.1532
     29 O         134.5456  156.3780  158.9348 O.3     1  UNL1       -0.4306
     30 C         133.6462  156.3593  157.7345 C.3     1  UNL1        0.2573
     31 C         139.3937  156.0432  158.3988 C.3     1  UNL1        0.0270
     32 C         139.3717  156.3475  159.8675 C.3     1  UNL1        0.0022
     33 C         140.6050  156.3807  157.5811 C.3     1  UNL1        0.0022
     34 C         141.6601  137.9997  154.7432 C.ar    1  UNL1        0.0192
     35 C         141.3413  138.8979  153.5849 C.ar    1  UNL1        0.0015
     36 C         140.9732  140.3318  153.8269 C.ar    1  UNL1        0.0000
     37 C         140.9240  140.8674  155.2271 C.ar    1  UNL1        0.0000
     38 C         141.2428  139.9693  156.3853 C.ar    1  UNL1        0.0000
     39 C         141.6109  138.5353  156.1434 C.ar    1  UNL1        0.0015
     40 C         142.7253  134.2692  154.8619 C.ar    1  UNL1        0.1353
     41 N         142.4561  135.5772  155.5450 N.ar    1  UNL1       -0.2295
     42 C         142.0282  136.5658  154.5012 C.ar    1  UNL1        0.0996
     43 C         142.0329  135.8688  153.1730 C.ar    1  UNL1        0.0927
     44 N         142.4637  134.4494  153.3959 N.ar    1  UNL1       -0.3383
     45 H         142.5583  133.7576  152.7019 H       1  UNL1        0.1672
     46 C         141.9544  131.2357  153.9385 C.2     1  UNL1        0.2439
     47 O         141.3535  132.3069  153.0774 O.2     1  UNL1       -0.2731
     48 N         142.8225  131.6089  155.1034 N.am    1  UNL1       -0.2730
     49 C         143.4886  130.6533  156.0484 C.3     1  UNL1        0.0938
     50 C         144.2546  131.4570  157.0569 C.3     1  UNL1        0.0220
     51 C         145.0702  130.9052  158.1885 C.3     1  UNL1        0.0018
     52 C         144.0620  132.9094  156.7352 C.3     1  UNL1        0.0293
     53 C         143.1768  133.0032  155.5279 C.3     1  UNL1        0.1319
     54 C         141.6872  129.7912  153.6346 C.3     1  UNL1        0.1512
     55 C         143.2458  127.7151  153.7332 C.2     1  UNL1        0.4021
     56 O         142.6565  127.3356  155.0593 O.2     1  UNL1       -0.2264
     57 N         142.7612  128.9428  153.0208 N.am    1  UNL1       -0.2640
     58 H         143.1481  129.1919  152.1504 H       1  UNL1        0.1532
     59 C         145.7630  127.2261  153.3150 C.3     1  UNL1        0.2573
     60 O         144.3199  126.8667  153.1194 O.3     1  UNL1       -0.4306
     61 C         140.3460  129.1953  153.9444 C.3     1  UNL1        0.0270
     62 C         139.7706  128.1375  153.0500 C.3     1  UNL1        0.0022
     63 C         139.5802  129.6571  155.1487 C.3     1  UNL1        0.0022
@<TRIPOS>BOND
     1    59    60    1
     2    60    55    1
     3    55    56    2
     4    55    57   am
     5    54    57    1
     6    54    46    1
     7    46    47    2
     8    46    48   am
     9    48    49    1
    10    49    50    1
    11    50    51    1
    12    50    52    1
    13    52    53    1
    14    53    40    1
    15    40    41   ar
    16    41    42   ar
    17    42    34    1
    18    34    35   ar
    19    35    36   ar
    20    36    37   ar
    21    37     1    1
    22     1     2   ar
    23     2     3   ar
    24     3     4   ar
    25     4     7    1
    26     7     8    2
    27     8     9    1
    28     9    10    2
    29    10    11    1
    30    11    12    2
    31    16    12    1
    32    16    17    1
    33    17    18    1
    34    18    19    1
    35    18    20    1
    36    20    21    1
    37    21    22   am
    38    22    23    2
    39    22    24    1
    40    24    25    1
    41    25    26   am
    42    26    27    2
    43    26    29    1
    44    29    30    1
    45    24    31    1
    46    31    32    1
    47    31    33    1
    48    12    13    1
    49    13    14    2
    50    14    15    1
    51     4     5   ar
    52     5     6   ar
    53    37    38   ar
    54    38    39   ar
    55    42    43   ar
    56    43    44   ar
    57    54    61    1
    58    61    62    1
    59    61    63    1
    60    53    48    1
    61    44    40   ar
    62    39    34   ar
    63     6     1   ar
    64    15     7    1
    65    14    10    1
    66    21    16    1
    67    57    58    1
    68    25    28    1
    69    44    45    1
@<TRIPOS>MOLECULE
*****
 63 69 0 0 0
SMALL
GASTEIGER

@<TRIPOS>ATOM
      1 C         137.6568  140.4771  158.6754 C.ar    1  UNL1       -0.0000
      2 C         137.3839  139.5519  159.8241 C.ar    1  UNL1       -0.0000
      3 C         138.4601  139.2664  160.8291 C.ar    1  UNL1       -0.0003
      4 C         139.8093  139.9059  160.6854 C.ar    1  UNL1       -0.0035
      5 C         140.0822  140.8311  159.5367 C.ar    1  UNL1       -0.0003
      6 C         139.0059  141.1167  158.5316 C.ar    1  UNL1       -0.0000
      7 C         140.8856  139.6203  161.6905 C.2     1  UNL1       -0.0137
      8 C         142.3279  139.6840  161.2834 C.2     1  UNL1        0.0001
      9 C         143.4041  139.3984  162.2885 C.2     1  UNL1        0.0498
     10 C         143.0380  139.0491  163.7006 C.2     1  UNL1        0.2318
     11 N         143.8738  138.7201  164.9020 N.2     1  UNL1       -0.0334
     12 C         142.9479  138.4530  166.0516 C.2     1  UNL1        0.3691
     13 N         141.5400  138.6170  165.5606 N.2     1  UNL1       -0.0373
     14 C         141.5957  138.9853  164.1076 C.2     1  UNL1        0.2175
     15 C         140.5195  139.2709  163.1025 C.3     1  UNL1        0.1040
     16 C         143.3579  138.0864  167.4471 C.3     1  UNL1        0.1878
     17 C         144.3786  137.0537  167.8236 C.3     1  UNL1        0.0344
     18 C         144.4707  137.0173  169.3204 C.3     1  UNL1        0.0221
     19 C         145.3688  136.1270  170.1270 C.3     1  UNL1        0.0018
     20 C         143.5069  138.0273  169.8689 C.3     1  UNL1        0.0940
     21 N         142.8191  138.6881  168.7110 N.am    1  UNL1       -0.2691
     22 C         141.7758  139.7621  168.8014 C.2     1  UNL1        0.2440
     23 O         141.1744  140.3307  167.5504 O.2     1  UNL1       -0.2731
     24 C         141.3339  140.2674  170.1429 C.3     1  UNL1        0.1512
     25 N         140.3633  139.4696  170.9624 N.am    1  UNL1       -0.2640
     26 C         138.8919  139.5684  170.6884 C.2     1  UNL1        0.4021
     27 O         138.3910  140.4648  169.5951 O.2     1  UNL1       -0.2264
     28 H         140.6921  138.8812  171.6800 H       1  UNL1        0.1532
     29 O         137.9213  138.7706  171.5079 O.3     1  UNL1       -0.4306
     30 C         136.4470  138.9073  171.2677 C.3     1  UNL1        0.2573
     31 C         141.8625  141.5705  170.6647 C.3     1  UNL1        0.0270
     32 C         143.2209  142.0503  170.2465 C.3     1  UNL1        0.0022
     33 C         141.0330  142.3940  171.6048 C.3     1  UNL1        0.0022
     34 C         134.4279  141.3339  155.6604 C.ar    1  UNL1        0.0192
     35 C         135.7341  142.0680  155.5896 C.ar    1  UNL1        0.0015
     36 C         136.8103  141.7824  156.5946 C.ar    1  UNL1        0.0000
     37 C         136.5805  140.7627  157.6704 C.ar    1  UNL1        0.0000
     38 C         135.2744  140.0286  157.7412 C.ar    1  UNL1        0.0000
     39 C         134.1980  140.3142  156.7362 C.ar    1  UNL1        0.0015
     40 C         131.1936  142.1183  153.6631 C.ar    1  UNL1        0.1353
     41 N         131.9071  141.8834  154.9615 N.ar    1  UNL1       -0.2295
     42 C         133.3516  141.6194  154.6554 C.ar    1  UNL1        0.0996
     43 C         133.5308  141.6912  153.1679 C.ar    1  UNL1        0.0927
     44 N         132.1971  141.9995  152.5546 N.ar    1  UNL1       -0.3383
     45 H         132.0128  142.1053  151.5933 H       1  UNL1        0.1672
     46 C         128.7526  140.7188  155.3162 C.2     1  UNL1        0.2439
     47 O         130.1136  140.2137  155.6938 O.2     1  UNL1       -0.2731
     48 N         128.6110  141.7759  154.2615 N.am    1  UNL1       -0.2730
     49 C         127.3225  142.3753  153.7814 C.3     1  UNL1        0.0938
     50 C         127.6481  143.3890  152.7249 C.3     1  UNL1        0.0220
     51 C         126.6578  144.2283  151.9732 C.3     1  UNL1        0.0018
     52 C         129.1378  143.4162  152.5520 C.3     1  UNL1        0.0293
     53 C         129.7329  142.4192  153.5017 C.3     1  UNL1        0.1319
     54 C         127.5332  140.1667  155.9933 C.3     1  UNL1        0.1512
     55 C         127.3610  137.6036  155.6057 C.2     1  UNL1        0.4021
     56 O         128.6198  137.3996  156.3955 O.2     1  UNL1       -0.2264
     57 N         126.8177  138.9871  155.4046 N.am    1  UNL1       -0.2640
     58 H         125.9916  139.1211  154.8862 H       1  UNL1        0.1532
     59 C         126.4752  135.1709  155.8236 C.3     1  UNL1        0.2573
     60 O         126.6455  136.4240  155.0169 O.3     1  UNL1       -0.4306
     61 C         127.0294  140.7942  157.2592 C.3     1  UNL1        0.0270
     62 C         126.6579  142.2473  157.2797 C.3     1  UNL1        0.0022
     63 C         126.8972  139.9686  158.5045 C.3     1  UNL1        0.0022
@<TRIPOS>BOND
     1    59    60    1
     2    60    55    1
     3    55    56    2
     4    55    57   am
     5    54    57    1
     6    54    46    1
     7    46    47    2
     8    46    48   am
     9    48    49    1
    10    49    50    1
    11    50    51    1
    12    50    52    1
    13    52    53    1
    14    53    40    1
    15    40    41   ar
    16    41    42   ar
    17    42    34    1
    18    34    35   ar
    19    35    36   ar
    20    36    37   ar
    21    37     1    1
    22     1     2   ar
    23     2     3   ar
    24     3     4   ar
    25     4     7    1
    26     7     8    2
    27     8     9    1
    28     9    10    2
    29    10    11    1
    30    11    12    2
    31    16    12    1
    32    16    17    1
    33    17    18    1
    34    18    19    1
    35    18    20    1
    36    20    21    1
    37    21    22   am
    38    22    23    2
    39    22    24    1
    40    24    25    1
    41    25    26   am
    42    26    27    2
    43    26    29    1
    44    29    30    1
    45    24    31    1
    46    31    32    1
    47    31    33    1
    48    12    13    1
    49    13    14    2
    50    14    15    1
    51     4     5   ar
    52     5     6   ar
    53    37    38   ar
    54    38    39   ar
    55    42    43   ar
    56    43    44   ar
    57    54    61    1
    58    61    62    1
    59    61    63    1
    60    53    48    1
    61    44    40   ar
    62    39    34   ar
    63     6     1   ar
    64    15     7    1
    65    14    10    1
    66    21    16    1
    67    57    58    1
    68    25    28    1
    69    44    45    1
@<TRIPOS>MOLECULE
*****
 63 69 0 0 0
SMALL
GASTEIGER

@<TRIPOS>ATOM
      1 C         142.7778  137.5706  158.9898 C.ar    1  UNL1       -0.0000
      2 C         142.7968  139.0321  158.6525 C.ar    1  UNL1       -0.0000
      3 C         142.9842  140.0500  159.7381 C.ar    1  UNL1       -0.0003
      4 C         143.1526  139.6065  161.1611 C.ar    1  UNL1       -0.0035
      5 C         143.1336  138.1451  161.4985 C.ar    1  UNL1       -0.0003
      6 C         142.9462  137.1271  160.4129 C.ar    1  UNL1       -0.0000
      7 C         143.3400  140.6245  162.2468 C.2     1  UNL1       -0.0137
      8 C         143.5413  142.0685  161.8943 C.2     1  UNL1        0.0001
      9 C         143.7287  143.0865  162.9799 C.2     1  UNL1        0.0498
     10 C         143.7148  142.6604  164.4181 C.2     1  UNL1        0.2318
     11 N         143.8723  143.4317  165.6950 N.2     1  UNL1       -0.0334
     12 C         143.7684  142.4643  166.8366 C.2     1  UNL1        0.3691
     13 N         143.5467  141.0952  166.2653 N.2     1  UNL1       -0.0373
     14 C         143.5136  141.2164  164.7706 C.2     1  UNL1        0.2175
     15 C         143.3262  140.1985  163.6850 C.3     1  UNL1        0.1040
     16 C         143.8687  142.8060  168.2938 C.3     1  UNL1        0.1878
     17 C         145.0748  143.3673  168.9868 C.3     1  UNL1        0.0344
     18 C         144.7318  143.5546  170.4351 C.3     1  UNL1        0.0221
     19 C         145.6463  144.0929  171.4951 C.3     1  UNL1        0.0018
     20 C         143.3139  143.1091  170.6370 C.3     1  UNL1        0.0940
     21 N         142.7804  142.6464  169.3135 N.am    1  UNL1       -0.2691
     22 C         141.4008  142.1171  169.0554 C.2     1  UNL1        0.2440
     23 O         141.0080  141.6903  167.6721 O.2     1  UNL1       -0.2731
     24 C         140.4140  142.0147  170.1805 C.3     1  UNL1        0.1512
     25 N         140.0907  143.2240  171.0069 N.am    1  UNL1       -0.2640
     26 C         139.8148  144.5377  170.3377 C.2     1  UNL1        0.4021
     27 O         139.8623  144.6422  168.8421 O.2     1  UNL1       -0.2264
     28 H         140.0595  143.1555  171.9886 H       1  UNL1        0.1532
     29 O         139.4914  145.7471  171.1641 O.3     1  UNL1       -0.4306
     30 C         138.1045  146.3181  171.1471 C.3     1  UNL1        0.2573
     31 C         139.7508  140.7029  170.4791 C.3     1  UNL1        0.0270
     32 C         138.4513  140.3516  169.8172 C.3     1  UNL1        0.0022
     33 C         140.3868  139.7423  171.4397 C.3     1  UNL1        0.0022
     34 C         142.2156  134.5168  155.7328 C.ar    1  UNL1        0.0192
     35 C         143.0941  134.2064  156.9085 C.ar    1  UNL1        0.0015
     36 C         143.2815  135.2244  157.9941 C.ar    1  UNL1        0.0000
     37 C         142.5904  136.5526  157.9042 C.ar    1  UNL1        0.0000
     38 C         141.7119  136.8630  156.7287 C.ar    1  UNL1        0.0000
     39 C         141.5245  135.8451  155.6430 C.ar    1  UNL1        0.0015
     40 C         141.6241  131.4019  153.4940 C.ar    1  UNL1        0.1353
     41 N         141.7308  132.0422  154.8462 N.ar    1  UNL1       -0.2295
     42 C         142.0282  133.4988  154.6472 C.ar    1  UNL1        0.0996
     43 C         142.1052  133.7588  153.1719 C.ar    1  UNL1        0.0927
     44 N         141.8555  132.4629  152.4591 N.ar    1  UNL1       -0.3383
     45 H         141.8452  132.3317  151.4835 H       1  UNL1        0.1672
     46 C         143.6066  128.8960  154.1567 C.2     1  UNL1        0.2439
     47 O         144.1656  130.2341  154.5400 O.2     1  UNL1       -0.2731
     48 N         142.2477  128.8029  153.5285 N.am    1  UNL1       -0.2730
     49 C         141.5615  127.5416  153.0947 C.3     1  UNL1        0.0938
     50 C         140.2261  127.9139  152.5219 C.3     1  UNL1        0.0220
     51 C         139.2085  126.9619  151.9667 C.3     1  UNL1        0.0018
     52 C         140.0870  129.4052  152.6018 C.3     1  UNL1        0.0293
     53 C         141.3364  129.9547  153.2239 C.3     1  UNL1        0.1319
     54 C         144.4066  127.6509  154.4017 C.3     1  UNL1        0.1512
     55 C         144.5785  127.2353  156.9604 C.2     1  UNL1        0.4021
     56 O         145.3272  128.5253  157.1197 O.2     1  UNL1       -0.2264
     57 N         144.1182  126.7981  155.6015 N.am    1  UNL1       -0.2640
     58 H         143.6268  125.9514  155.4970 H       1  UNL1        0.1532
     59 C         144.1755  127.0112  159.5173 C.3     1  UNL1        0.2573
     60 O         144.2901  126.3825  158.1603 O.3     1  UNL1       -0.4306
     61 C         145.4949  127.2587  153.4468 C.3     1  UNL1        0.0270
     62 C         145.2532  127.3204  151.9678 C.3     1  UNL1        0.0022
     63 C         146.8250  126.8048  153.9711 C.3     1  UNL1        0.0022
@<TRIPOS>BOND
     1    59    60    1
     2    60    55    1
     3    55    56    2
     4    55    57   am
     5    54    57    1
     6    54    46    1
     7    46    47    2
     8    46    48   am
     9    48    49    1
    10    49    50    1
    11    50    51    1
    12    50    52    1
    13    52    53    1
    14    53    40    1
    15    40    41   ar
    16    41    42   ar
    17    42    34    1
    18    34    35   ar
    19    35    36   ar
    20    36    37   ar
    21    37     1    1
    22     1     2   ar
    23     2     3   ar
    24     3     4   ar
    25     4     7    1
    26     7     8    2
    27     8     9    1
    28     9    10    2
    29    10    11    1
    30    11    12    2
    31    16    12    1
    32    16    17    1
    33    17    18    1
    34    18    19    1
    35    18    20    1
    36    20    21    1
    37    21    22   am
    38    22    23    2
    39    22    24    1
    40    24    25    1
    41    25    26   am
    42    26    27    2
    43    26    29    1
    44    29    30    1
    45    24    31    1
    46    31    32    1
    47    31    33    1
    48    12    13    1
    49    13    14    2
    50    14    15    1
    51     4     5   ar
    52     5     6   ar
    53    37    38   ar
    54    38    39   ar
    55    42    43   ar
    56    43    44   ar
    57    54    61    1
    58    61    62    1
    59    61    63    1
    60    53    48    1
    61    44    40   ar
    62    39    34   ar
    63     6     1   ar
    64    15     7    1
    65    14    10    1
    66    21    16    1
    67    57    58    1
    68    25    28    1
    69    44    45    1
