@<TRIPOS>MOLECULE
*****
 33 38 0 0 0
SMALL
GASTEIGER

@<TRIPOS>ATOM
      1 N         138.7222  140.8906  160.2396 N.ar    1  UNL1       -0.2702
      2 C         138.6831  142.3875  160.3294 C.ar    1  UNL1        0.3532
      3 O         137.6721  143.0598  161.2103 O.2     1  UNL1       -0.2443
      4 N         139.6550  143.2119  159.5382 N.ar    1  UNL1       -0.1606
      5 N         139.8547  144.6942  159.4253 N.ar    1  UNL1       -0.1372
      6 C         140.9891  144.9379  158.4747 C.ar    1  UNL1        0.2214
      7 N         141.4904  143.6062  158.0001 N.ar    1  UNL1       -0.2032
      8 C         140.6659  142.5394  158.6574 C.ar    1  UNL1        0.1717
      9 C         140.7050  141.0426  158.5677 C.ar    1  UNL1        0.0545
     10 C         141.5818  140.1063  157.7903 C.ar    1  UNL1       -0.0126
     11 C         141.1520  138.7032  158.1009 C.ar    1  UNL1        0.0210
     12 S         140.0094  138.7724  159.0703 S.2     1  UNL1       -0.0728
     13 C         139.7331  140.2183  159.3588 C.ar    1  UNL1        0.0965
     14 C         141.8565  137.5438  157.4609 C.3     1  UNL1        0.1054
     15 N         142.9908  137.7876  156.5103 N.3     1  UNL1       -0.2682
     16 C         143.4207  139.1907  156.1996 C.3     1  UNL1        0.0771
     17 C         142.7162  140.3500  156.8396 C.3     1  UNL1        0.0441
     18 C         137.7503  140.0662  161.0308 C.3     1  UNL1        0.1378
     19 C         138.6073  139.0985  165.3412 C.ar    1  UNL1        0.1387
     20 C         138.0665  140.4471  164.9684 C.ar    1  UNL1        0.0366
     21 C         137.7809  140.7696  163.5316 C.ar    1  UNL1        0.0007
     22 C         138.0360  139.7436  162.4676 C.ar    1  UNL1        0.0007
     23 C         138.5768  138.3951  162.8403 C.ar    1  UNL1        0.0007
     24 C         138.8624  138.0725  164.2771 C.ar    1  UNL1        0.0366
     25 C         139.3779  139.8502  167.7057 C.3     1  UNL1        0.2525
     26 O         138.8930  138.7759  166.7780 O.3     1  UNL1       -0.4714
     27 C         143.6953  136.6283  155.8703 C.3     1  UNL1        0.0725
     28 C         143.1513  135.2395  156.0294 C.3     1  UNL1        0.0210
     29 C         143.7488  134.3117  157.0453 C.3     1  UNL1        0.0335
     30 C         143.2048  132.9230  157.2044 C.3     1  UNL1        0.1422
     31 O         142.0633  132.4620  156.3476 O.3     1  UNL1       -0.3538
     32 C         141.4656  133.3897  155.3317 C.3     1  UNL1        0.1422
     33 C         142.0096  134.7785  155.1726 C.3     1  UNL1        0.0335
@<TRIPOS>BOND
     1    25    26    1
     2    26    19    1
     3    19    20   ar
     4    20    21   ar
     5    21    22   ar
     6    22    18    1
     7    18     1    1
     8     1     2   ar
     9     2     3    2
    10     2     4   ar
    11     4     5   ar
    12     5     6   ar
    13     6     7   ar
    14     7     8   ar
    15     8     9   ar
    16     9    10   ar
    17    10    11   ar
    18    11    12   ar
    19    12    13   ar
    20    11    14    1
    21    14    15    1
    22    15    27    1
    23    27    28    1
    24    28    29    1
    25    29    30    1
    26    30    31    1
    27    31    32    1
    28    32    33    1
    29    15    16    1
    30    16    17    1
    31    22    23   ar
    32    23    24   ar
    33    24    19   ar
    34    13     1   ar
    35    33    28    1
    36     8     4   ar
    37    13     9   ar
    38    17    10    1
@<TRIPOS>MOLECULE
*****
 33 38 0 0 0
SMALL
GASTEIGER

@<TRIPOS>ATOM
      1 N         139.1437  141.0692  160.2625 N.ar    1  UNL1       -0.2702
      2 C         139.3456  142.3847  159.5704 C.ar    1  UNL1        0.3532
      3 O         139.2535  142.4676  158.0755 O.2     1  UNL1       -0.2443
      4 N         139.6397  143.6171  160.3733 N.ar    1  UNL1       -0.1606
      5 N         139.8836  145.0417  159.9722 N.ar    1  UNL1       -0.1372
      6 C         140.1264  145.8392  161.2192 C.ar    1  UNL1        0.2214
      7 N         140.0326  144.9075  162.3910 N.ar    1  UNL1       -0.2032
      8 C         139.7317  143.5341  161.8681 C.ar    1  UNL1        0.1717
      9 C         139.5298  142.2187  162.5601 C.ar    1  UNL1        0.0545
     10 C         139.5603  141.8317  164.0090 C.ar    1  UNL1       -0.0126
     11 C         139.2851  140.3601  164.1016 C.ar    1  UNL1        0.0210
     12 S         139.0845  139.8375  162.7100 S.2     1  UNL1       -0.0728
     13 C         139.2357  140.9863  161.7572 C.ar    1  UNL1        0.0965
     14 C         139.2528  139.6859  165.4413 C.3     1  UNL1        0.1054
     15 N         139.4956  140.4834  166.6883 N.3     1  UNL1       -0.2682
     16 C         139.7708  141.9551  166.5956 C.3     1  UNL1        0.0771
     17 C         139.8031  142.6292  165.2560 C.3     1  UNL1        0.0441
     18 C         138.8496  139.8367  159.4595 C.3     1  UNL1        0.1378
     19 C         142.2191  137.5112  157.5917 C.ar    1  UNL1        0.1387
     20 C         142.4238  138.2027  158.9070 C.ar    1  UNL1        0.0366
     21 C         141.3006  138.9778  159.5296 C.ar    1  UNL1        0.0007
     22 C         139.9728  139.0615  158.8369 C.ar    1  UNL1        0.0007
     23 C         139.7681  138.3700  157.5217 C.ar    1  UNL1        0.0007
     24 C         140.8912  137.5948  156.8991 C.ar    1  UNL1        0.0366
     25 C         143.2711  135.2393  156.8974 C.3     1  UNL1        0.2525
     26 O         143.3422  136.7359  156.9690 O.3     1  UNL1       -0.4714
     27 C         139.4632  139.8093  168.0278 C.3     1  UNL1        0.0725
     28 C         140.2682  140.3633  169.1658 C.3     1  UNL1        0.0210
     29 C         141.6290  139.8066  169.4628 C.3     1  UNL1        0.0335
     30 C         142.4339  140.3605  170.6009 C.3     1  UNL1        0.1422
     31 O         141.8782  141.4712  171.4419 O.3     1  UNL1       -0.3538
     32 C         140.5174  142.0280  171.1449 C.3     1  UNL1        0.1422
     33 C         139.7124  141.4740  170.0069 C.3     1  UNL1        0.0335
@<TRIPOS>BOND
     1    25    26    1
     2    26    19    1
     3    19    20   ar
     4    20    21   ar
     5    21    22   ar
     6    22    18    1
     7    18     1    1
     8     1     2   ar
     9     2     3    2
    10     2     4   ar
    11     4     5   ar
    12     5     6   ar
    13     6     7   ar
    14     7     8   ar
    15     8     9   ar
    16     9    10   ar
    17    10    11   ar
    18    11    12   ar
    19    12    13   ar
    20    11    14    1
    21    14    15    1
    22    15    27    1
    23    27    28    1
    24    28    29    1
    25    29    30    1
    26    30    31    1
    27    31    32    1
    28    32    33    1
    29    15    16    1
    30    16    17    1
    31    22    23   ar
    32    23    24   ar
    33    24    19   ar
    34    13     1   ar
    35    33    28    1
    36     8     4   ar
    37    13     9   ar
    38    17    10    1
@<TRIPOS>MOLECULE
*****
 33 38 0 0 0
SMALL
GASTEIGER

@<TRIPOS>ATOM
      1 N         143.2054  142.8729  160.5233 N.ar    1  UNL1       -0.2702
      2 C         142.3837  143.9804  159.9331 C.ar    1  UNL1        0.3532
      3 O         142.5821  144.3805  158.5011 O.2     1  UNL1       -0.2443
      4 N         141.3635  144.6879  160.7751 N.ar    1  UNL1       -0.1606
      5 N         140.4135  145.8081  160.4708 N.ar    1  UNL1       -0.1372
      6 C         139.6280  146.1003  161.7148 C.ar    1  UNL1        0.2214
      7 N         140.0925  145.1608  162.7879 N.ar    1  UNL1       -0.2032
      8 C         141.1651  144.2878  162.2071 C.ar    1  UNL1        0.1717
      9 C         141.9869  143.1803  162.7971 C.ar    1  UNL1        0.0545
     10 C         142.0139  142.5711  164.1676 C.ar    1  UNL1       -0.0126
     11 C         143.0507  141.4872  164.1727 C.ar    1  UNL1        0.0210
     12 S         143.6645  141.4264  162.8054 S.2     1  UNL1       -0.0728
     13 C         143.0070  142.4729  161.9552 C.ar    1  UNL1        0.0965
     14 C         143.3019  140.6955  165.4218 C.3     1  UNL1        0.1054
     15 N         142.5164  140.9877  166.6657 N.3     1  UNL1       -0.2682
     16 C         141.4796  142.0717  166.6606 C.3     1  UNL1        0.0771
     17 C         141.2283  142.8634  165.4116 C.3     1  UNL1        0.0441
     18 C         144.2256  142.1654  159.6813 C.3     1  UNL1        0.1378
     19 C         143.0155  138.6243  157.1820 C.ar    1  UNL1        0.1387
     20 C         142.8509  138.5818  158.6723 C.ar    1  UNL1        0.0366
     21 C         143.2543  139.7621  159.5054 C.ar    1  UNL1        0.0007
     22 C         143.8222  140.9850  158.8482 C.ar    1  UNL1        0.0007
     23 C         143.9869  141.0275  157.3579 C.ar    1  UNL1        0.0007
     24 C         143.5835  139.8472  156.5248 C.ar    1  UNL1        0.0366
     25 C         142.9406  136.0543  156.8083 C.3     1  UNL1        0.2525
     26 O         142.6122  137.4440  156.3488 O.3     1  UNL1       -0.4714
     27 C         142.7676  140.1961  167.9147 C.3     1  UNL1        0.0725
     28 C         142.0555  140.5539  169.1854 C.3     1  UNL1        0.0210
     29 C         142.6169  141.6128  170.0872 C.3     1  UNL1        0.0335
     30 C         141.9047  141.9706  171.3580 C.3     1  UNL1        0.1422
     31 O         140.6312  141.2694  171.7269 O.3     1  UNL1       -0.3538
     32 C         140.0697  140.2104  170.8251 C.3     1  UNL1        0.1422
     33 C         140.7818  139.8526  169.5544 C.3     1  UNL1        0.0335
@<TRIPOS>BOND
     1    25    26    1
     2    26    19    1
     3    19    20   ar
     4    20    21   ar
     5    21    22   ar
     6    22    18    1
     7    18     1    1
     8     1     2   ar
     9     2     3    2
    10     2     4   ar
    11     4     5   ar
    12     5     6   ar
    13     6     7   ar
    14     7     8   ar
    15     8     9   ar
    16     9    10   ar
    17    10    11   ar
    18    11    12   ar
    19    12    13   ar
    20    11    14    1
    21    14    15    1
    22    15    27    1
    23    27    28    1
    24    28    29    1
    25    29    30    1
    26    30    31    1
    27    31    32    1
    28    32    33    1
    29    15    16    1
    30    16    17    1
    31    22    23   ar
    32    23    24   ar
    33    24    19   ar
    34    13     1   ar
    35    33    28    1
    36     8     4   ar
    37    13     9   ar
    38    17    10    1
@<TRIPOS>MOLECULE
*****
 33 38 0 0 0
SMALL
GASTEIGER

@<TRIPOS>ATOM
      1 N         138.5564  141.8147  162.7097 N.ar    1  UNL1       -0.2702
      2 C         138.4575  143.3115  162.6925 C.ar    1  UNL1        0.3532
      3 O         137.5929  144.0175  163.6945 O.2     1  UNL1       -0.2443
      4 N         139.2233  144.1019  161.6733 N.ar    1  UNL1       -0.1606
      5 N         139.3224  145.5760  161.4139 N.ar    1  UNL1       -0.1372
      6 C         140.2482  145.7809  160.2517 C.ar    1  UNL1        0.2214
      7 N         140.7213  144.4334  159.7928 N.ar    1  UNL1       -0.2032
      8 C         140.0879  143.3958  160.6714 C.ar    1  UNL1        0.1717
      9 C         140.1867  141.8991  160.6887 C.ar    1  UNL1        0.0545
     10 C         140.9524  140.9339  159.8330 C.ar    1  UNL1       -0.0126
     11 C         140.6598  139.5468  160.3233 C.ar    1  UNL1        0.0210
     12 S         139.7133  139.6548  161.4820 S.2     1  UNL1       -0.0728
     13 C         139.4209  141.1087  161.7078 C.ar    1  UNL1        0.0965
     14 C         141.2930  138.3646  159.6514 C.3     1  UNL1        0.1054
     15 N         142.2188  138.5695  158.4891 N.3     1  UNL1       -0.2682
     16 C         142.5114  139.9566  157.9989 C.3     1  UNL1        0.0771
     17 C         141.8782  141.1387  158.6708 C.3     1  UNL1        0.0441
     18 C         137.7905  141.0242  163.7289 C.3     1  UNL1        0.1378
     19 C         139.6724  140.0496  167.6986 C.ar    1  UNL1        0.1387
     20 C         140.0778  141.2912  166.9611 C.ar    1  UNL1        0.0366
     21 C         139.4505  141.6161  165.6378 C.ar    1  UNL1        0.0007
     22 C         138.4178  140.6993  165.0521 C.ar    1  UNL1        0.0007
     23 C         138.0124  139.4577  165.7897 C.ar    1  UNL1        0.0007
     24 C         138.6397  139.1329  167.1129 C.ar    1  UNL1        0.0366
     25 C         139.6848  140.2390  170.2897 C.3     1  UNL1        0.2525
     26 O         140.2997  139.7247  169.0219 O.3     1  UNL1       -0.4714
     27 C         142.8520  137.3874  157.8173 C.3     1  UNL1        0.0725
     28 C         142.0973  136.6291  156.7658 C.3     1  UNL1        0.0210
     29 C         142.5183  135.2375  156.3973 C.3     1  UNL1        0.0335
     30 C         141.7637  134.4792  155.3459 C.3     1  UNL1        0.1422
     31 O         140.5880  135.1126  154.6630 O.3     1  UNL1       -0.3538
     32 C         140.1669  136.5044  155.0315 C.3     1  UNL1        0.1422
     33 C         140.9216  137.2626  156.0829 C.3     1  UNL1        0.0335
@<TRIPOS>BOND
     1    25    26    1
     2    26    19    1
     3    19    20   ar
     4    20    21   ar
     5    21    22   ar
     6    22    18    1
     7    18     1    1
     8     1     2   ar
     9     2     3    2
    10     2     4   ar
    11     4     5   ar
    12     5     6   ar
    13     6     7   ar
    14     7     8   ar
    15     8     9   ar
    16     9    10   ar
    17    10    11   ar
    18    11    12   ar
    19    12    13   ar
    20    11    14    1
    21    14    15    1
    22    15    27    1
    23    27    28    1
    24    28    29    1
    25    29    30    1
    26    30    31    1
    27    31    32    1
    28    32    33    1
    29    15    16    1
    30    16    17    1
    31    22    23   ar
    32    23    24   ar
    33    24    19   ar
    34    13     1   ar
    35    33    28    1
    36     8     4   ar
    37    13     9   ar
    38    17    10    1
@<TRIPOS>MOLECULE
*****
 33 38 0 0 0
SMALL
GASTEIGER

@<TRIPOS>ATOM
      1 N         141.3579  141.9345  160.0925 N.ar    1  UNL1       -0.2702
      2 C         140.7893  143.2223  159.5745 C.ar    1  UNL1        0.3532
      3 O         140.6031  143.4203  158.0993 O.2     1  UNL1       -0.2443
      4 N         140.4069  144.3120  160.5317 N.ar    1  UNL1       -0.1606
      5 N         139.8272  145.6787  160.3170 N.ar    1  UNL1       -0.1372
      6 C         139.6551  146.3253  161.6595 C.ar    1  UNL1        0.2214
      7 N         140.1284  145.3583  162.7039 N.ar    1  UNL1       -0.2032
      8 C         140.5931  144.1140  162.0069 C.ar    1  UNL1        0.1717
      9 C         141.1616  142.8262  162.5248 C.ar    1  UNL1        0.0545
     10 C         141.4579  142.3471  163.9151 C.ar    1  UNL1       -0.0126
     11 C         142.0234  140.9612  163.8171 C.ar    1  UNL1        0.0210
     12 S         142.0767  140.5838  162.3663 S.2     1  UNL1       -0.0728
     13 C         141.5440  141.7365  161.5676 C.ar    1  UNL1        0.0965
     14 C         142.4168  140.2220  165.0616 C.3     1  UNL1        0.1054
     15 N         142.2447  140.8686  166.4041 N.3     1  UNL1       -0.2682
     16 C         141.6792  142.2545  166.5020 C.3     1  UNL1        0.0771
     17 C         141.2858  142.9937  165.2575 C.3     1  UNL1        0.0441
     18 C         141.7403  140.8447  159.1353 C.3     1  UNL1        0.1378
     19 C         145.4599  141.2491  156.6350 C.ar    1  UNL1        0.1387
     20 C         145.2146  142.1950  157.7730 C.ar    1  UNL1        0.0366
     21 C         143.9748  142.0602  158.6064 C.ar    1  UNL1        0.0007
     22 C         142.9802  140.9795  158.3019 C.ar    1  UNL1        0.0007
     23 C         143.2254  140.0335  157.1639 C.ar    1  UNL1        0.0007
     24 C         144.4653  140.1683  156.3305 C.ar    1  UNL1        0.0366
     25 C         147.7579  142.3749  156.1862 C.3     1  UNL1        0.2525
     26 O         146.6997  141.3838  155.8015 O.3     1  UNL1       -0.4714
     27 C         142.6381  140.1294  167.6485 C.3     1  UNL1        0.0725
     28 C         141.9770  140.4551  168.9550 C.3     1  UNL1        0.0210
     29 C         140.6196  139.8991  169.2678 C.3     1  UNL1        0.0335
     30 C         139.9585  140.2248  170.5743 C.3     1  UNL1        0.1422
     31 O         140.6549  141.1066  171.5679 O.3     1  UNL1       -0.3538
     32 C         142.0124  141.6627  171.2551 C.3     1  UNL1        0.1422
     33 C         142.6735  141.3369  169.9486 C.3     1  UNL1        0.0335
@<TRIPOS>BOND
     1    25    26    1
     2    26    19    1
     3    19    20   ar
     4    20    21   ar
     5    21    22   ar
     6    22    18    1
     7    18     1    1
     8     1     2   ar
     9     2     3    2
    10     2     4   ar
    11     4     5   ar
    12     5     6   ar
    13     6     7   ar
    14     7     8   ar
    15     8     9   ar
    16     9    10   ar
    17    10    11   ar
    18    11    12   ar
    19    12    13   ar
    20    11    14    1
    21    14    15    1
    22    15    27    1
    23    27    28    1
    24    28    29    1
    25    29    30    1
    26    30    31    1
    27    31    32    1
    28    32    33    1
    29    15    16    1
    30    16    17    1
    31    22    23   ar
    32    23    24   ar
    33    24    19   ar
    34    13     1   ar
    35    33    28    1
    36     8     4   ar
    37    13     9   ar
    38    17    10    1
@<TRIPOS>MOLECULE
*****
 33 38 0 0 0
SMALL
GASTEIGER

@<TRIPOS>ATOM
      1 N         141.9321  139.7350  163.6877 N.ar    1  UNL1       -0.2702
      2 C         140.9431  138.6145  163.8166 C.ar    1  UNL1        0.3532
      3 O         141.1583  137.5379  164.8387 O.2     1  UNL1       -0.2443
      4 N         139.7389  138.5708  162.9232 N.ar    1  UNL1       -0.1606
      5 N         138.6012  137.5988  162.8193 N.ar    1  UNL1       -0.1372
      6 C         137.6828  138.0748  161.7330 C.ar    1  UNL1        0.2214
      7 N         138.2530  139.3408  161.1656 N.ar    1  UNL1       -0.2032
      8 C         139.5237  139.6474  161.9012 C.ar    1  UNL1        0.1717
      9 C         140.5127  140.7678  161.7724 C.ar    1  UNL1        0.0545
     10 C         140.5655  141.9606  160.8645 C.ar    1  UNL1       -0.0126
     11 C         141.8023  142.7416  161.1966 C.ar    1  UNL1        0.0210
     12 S         142.5139  142.0315  162.3098 S.2     1  UNL1       -0.0728
     13 C         141.7169  140.8115  162.6657 C.ar    1  UNL1        0.0965
     14 C         142.1207  143.9985  160.4424 C.3     1  UNL1        0.1054
     15 N         141.2024  144.4745  159.3561 N.3     1  UNL1       -0.2682
     16 C         139.9656  143.6934  159.0240 C.3     1  UNL1        0.0771
     17 C         139.6471  142.4365  159.7781 C.3     1  UNL1        0.0441
     18 C         143.1364  139.7788  164.5811 C.3     1  UNL1        0.1378
     19 C         142.7528  141.2910  168.8020 C.ar    1  UNL1        0.1387
     20 C         142.9613  142.2584  167.6748 C.ar    1  UNL1        0.0366
     21 C         143.0891  141.7543  166.2678 C.ar    1  UNL1        0.0007
     22 C         143.0085  140.2829  165.9881 C.ar    1  UNL1        0.0007
     23 C         142.8001  139.3155  167.1153 C.ar    1  UNL1        0.0007
     24 C         142.6723  139.8196  168.5223 C.ar    1  UNL1        0.0366
     25 C         141.6185  141.1817  171.1368 C.3     1  UNL1        0.2525
     26 O         142.6250  141.7950  170.2091 O.3     1  UNL1       -0.4714
     27 C         141.5208  145.7313  158.6020 C.3     1  UNL1        0.0725
     28 C         141.1111  145.8683  157.1656 C.3     1  UNL1        0.0210
     29 C         141.9735  145.2931  156.0815 C.3     1  UNL1        0.0335
     30 C         141.5637  145.4301  154.6451 C.3     1  UNL1        0.1422
     31 O         140.2916  146.1423  154.2927 O.3     1  UNL1       -0.3538
     32 C         139.4292  146.7176  155.3768 C.3     1  UNL1        0.1422
     33 C         139.8389  146.5806  156.8132 C.3     1  UNL1        0.0335
@<TRIPOS>BOND
     1    25    26    1
     2    26    19    1
     3    19    20   ar
     4    20    21   ar
     5    21    22   ar
     6    22    18    1
     7    18     1    1
     8     1     2   ar
     9     2     3    2
    10     2     4   ar
    11     4     5   ar
    12     5     6   ar
    13     6     7   ar
    14     7     8   ar
    15     8     9   ar
    16     9    10   ar
    17    10    11   ar
    18    11    12   ar
    19    12    13   ar
    20    11    14    1
    21    14    15    1
    22    15    27    1
    23    27    28    1
    24    28    29    1
    25    29    30    1
    26    30    31    1
    27    31    32    1
    28    32    33    1
    29    15    16    1
    30    16    17    1
    31    22    23   ar
    32    23    24   ar
    33    24    19   ar
    34    13     1   ar
    35    33    28    1
    36     8     4   ar
    37    13     9   ar
    38    17    10    1
@<TRIPOS>MOLECULE
*****
 33 38 0 0 0
SMALL
GASTEIGER

@<TRIPOS>ATOM
      1 N         141.6038  138.0125  157.2052 N.ar    1  UNL1       -0.2702
      2 C         140.4289  138.5819  156.4667 C.ar    1  UNL1        0.3532
      3 O         140.3000  138.3724  154.9869 O.2     1  UNL1       -0.2443
      4 N         139.3829  139.3606  157.2079 N.ar    1  UNL1       -0.1606
      5 N         138.1235  140.0361  156.7521 N.ar    1  UNL1       -0.1372
      6 C         137.4742  140.6630  157.9502 C.ar    1  UNL1        0.2214
      7 N         138.3321  140.3749  159.1464 N.ar    1  UNL1       -0.2032
      8 C         139.5118  139.5700  158.6876 C.ar    1  UNL1        0.1717
      9 C         140.6867  139.0006  159.4261 C.ar    1  UNL1        0.0545
     10 C         141.0794  139.0436  160.8732 C.ar    1  UNL1       -0.0126
     11 C         142.3681  138.2914  161.0263 C.ar    1  UNL1        0.0210
     12 S         142.7719  137.7836  159.6739 S.2     1  UNL1       -0.0728
     13 C         141.7327  138.2219  158.6849 C.ar    1  UNL1        0.0965
     14 C         143.0074  138.1661  162.3774 C.3     1  UNL1        0.1054
     15 N         142.3580  138.7930  163.5755 N.3     1  UNL1       -0.2682
     16 C         141.0693  139.5451  163.4223 C.3     1  UNL1        0.0771
     17 C         140.4300  139.6704  162.0712 C.3     1  UNL1        0.0441
     18 C         142.6499  137.2337  156.4640 C.3     1  UNL1        0.1378
     19 C         142.3513  132.7515  156.1985 C.ar    1  UNL1        0.1387
     20 C         143.3279  133.3833  157.1456 C.ar    1  UNL1        0.0366
     21 C         143.4274  134.8774  157.2341 C.ar    1  UNL1        0.0007
     22 C         142.5504  135.7396  156.3755 C.ar    1  UNL1        0.0007
     23 C         141.5738  135.1078  155.4284 C.ar    1  UNL1        0.0007
     24 C         141.4742  133.6137  155.3399 C.ar    1  UNL1        0.0366
     25 C         143.1718  130.3950  156.9221 C.3     1  UNL1        0.2525
     26 O         142.2517  131.2574  156.1099 O.3     1  UNL1       -0.4714
     27 C         142.9973  138.6677  164.9265 C.3     1  UNL1        0.0725
     28 C         143.0055  139.8387  165.8639 C.3     1  UNL1        0.0210
     29 C         142.5854  139.6587  167.2926 C.3     1  UNL1        0.0335
     30 C         142.5936  140.8296  168.2300 C.3     1  UNL1        0.1422
     31 O         143.0217  142.1806  167.7387 O.3     1  UNL1       -0.3538
     32 C         143.4418  142.3607  166.3100 C.3     1  UNL1        0.1422
     33 C         143.4337  141.1897  165.3726 C.3     1  UNL1        0.0335
@<TRIPOS>BOND
     1    25    26    1
     2    26    19    1
     3    19    20   ar
     4    20    21   ar
     5    21    22   ar
     6    22    18    1
     7    18     1    1
     8     1     2   ar
     9     2     3    2
    10     2     4   ar
    11     4     5   ar
    12     5     6   ar
    13     6     7   ar
    14     7     8   ar
    15     8     9   ar
    16     9    10   ar
    17    10    11   ar
    18    11    12   ar
    19    12    13   ar
    20    11    14    1
    21    14    15    1
    22    15    27    1
    23    27    28    1
    24    28    29    1
    25    29    30    1
    26    30    31    1
    27    31    32    1
    28    32    33    1
    29    15    16    1
    30    16    17    1
    31    22    23   ar
    32    23    24   ar
    33    24    19   ar
    34    13     1   ar
    35    33    28    1
    36     8     4   ar
    37    13     9   ar
    38    17    10    1
@<TRIPOS>MOLECULE
*****
 33 38 0 0 0
SMALL
GASTEIGER

@<TRIPOS>ATOM
      1 N         139.5024  141.5438  162.5112 N.ar    1  UNL1       -0.2702
      2 C         138.8369  142.8270  162.9121 C.ar    1  UNL1        0.3532
      3 O         137.7737  142.8217  163.9702 O.2     1  UNL1       -0.2443
      4 N         139.2347  144.1153  162.2549 N.ar    1  UNL1       -0.1606
      5 N         138.7592  145.5257  162.4411 N.ar    1  UNL1       -0.1372
      6 C         139.5285  146.4025  161.4981 C.ar    1  UNL1        0.2214
      7 N         140.4795  145.5341  160.7291 N.ar    1  UNL1       -0.2032
      8 C         140.2980  144.1205  161.1968 C.ar    1  UNL1        0.1717
      9 C         140.9634  142.8373  160.7959 C.ar    1  UNL1        0.0545
     10 C         142.0356  142.5338  159.7917 C.ar    1  UNL1       -0.0126
     11 C         142.3004  141.0578  159.8283 C.ar    1  UNL1        0.0210
     12 S         141.3920  140.4492  160.8551 S.2     1  UNL1       -0.0728
     13 C         140.5656  141.5490  161.4532 C.ar    1  UNL1        0.0965
     14 C         143.3346  140.4587  158.9219 C.3     1  UNL1        0.1054
     15 N         144.1039  141.3355  157.9789 N.3     1  UNL1       -0.2682
     16 C         143.8390  142.8115  157.9424 C.3     1  UNL1        0.0771
     17 C         142.8049  143.4106  158.8488 C.3     1  UNL1        0.0441
     18 C         139.1046  140.2554  163.1684 C.3     1  UNL1        0.1378
     19 C         139.4411  139.8097  167.6336 C.ar    1  UNL1        0.1387
     20 C         138.3014  139.1676  166.8996 C.ar    1  UNL1        0.0366
     21 C         138.1893  139.3162  165.4112 C.ar    1  UNL1        0.0007
     22 C         139.2168  140.1068  164.6568 C.ar    1  UNL1        0.0007
     23 C         140.3565  140.7489  165.3909 C.ar    1  UNL1        0.0007
     24 C         140.4686  140.6003  166.8793 C.ar    1  UNL1        0.0366
     25 C         140.8346  140.0159  169.8166 C.3     1  UNL1        0.2525
     26 O         139.5533  139.6611  169.1221 O.3     1  UNL1       -0.4714
     27 C         145.1380  140.7365  157.0726 C.3     1  UNL1        0.0725
     28 C         145.6623  141.5243  155.9088 C.3     1  UNL1        0.0210
     29 C         144.9007  141.5508  154.6169 C.3     1  UNL1        0.0335
     30 C         145.4250  142.3387  153.4532 C.3     1  UNL1        0.1422
     31 O         146.7110  143.1001  153.5814 O.3     1  UNL1       -0.3538
     32 C         147.4727  143.0736  154.8733 C.3     1  UNL1        0.1422
     33 C         146.9484  142.2858  156.0370 C.3     1  UNL1        0.0335
@<TRIPOS>BOND
     1    25    26    1
     2    26    19    1
     3    19    20   ar
     4    20    21   ar
     5    21    22   ar
     6    22    18    1
     7    18     1    1
     8     1     2   ar
     9     2     3    2
    10     2     4   ar
    11     4     5   ar
    12     5     6   ar
    13     6     7   ar
    14     7     8   ar
    15     8     9   ar
    16     9    10   ar
    17    10    11   ar
    18    11    12   ar
    19    12    13   ar
    20    11    14    1
    21    14    15    1
    22    15    27    1
    23    27    28    1
    24    28    29    1
    25    29    30    1
    26    30    31    1
    27    31    32    1
    28    32    33    1
    29    15    16    1
    30    16    17    1
    31    22    23   ar
    32    23    24   ar
    33    24    19   ar
    34    13     1   ar
    35    33    28    1
    36     8     4   ar
    37    13     9   ar
    38    17    10    1
@<TRIPOS>MOLECULE
*****
 33 38 0 0 0
SMALL
GASTEIGER

@<TRIPOS>ATOM
      1 N         139.5707  142.1098  164.5018 N.ar    1  UNL1       -0.2702
      2 C         139.0674  140.7037  164.6420 C.ar    1  UNL1        0.3532
      3 O         138.6356  140.1920  165.9844 O.2     1  UNL1       -0.2443
      4 N         138.9959  139.8094  163.4399 N.ar    1  UNL1       -0.1606
      5 N         138.5468  138.3881  163.2716 N.ar    1  UNL1       -0.1372
      6 C         138.7011  138.0215  161.8253 C.ar    1  UNL1        0.2214
      7 N         139.2455  139.2162  161.0998 N.ar    1  UNL1       -0.2032
      8 C         139.4277  140.3212  162.0977 C.ar    1  UNL1        0.1717
      9 C         139.9310  141.7272  161.9575 C.ar    1  UNL1        0.0545
     10 C         140.4224  142.5039  160.7721 C.ar    1  UNL1       -0.0126
     11 C         140.7975  143.8783  161.2415 C.ar    1  UNL1        0.0210
     12 S         140.5381  143.9510  162.7171 S.2     1  UNL1       -0.0728
     13 C         140.0025  142.6215  163.1597 C.ar    1  UNL1        0.0965
     14 C         141.3270  144.8860  160.2647 C.3     1  UNL1        0.1054
     15 N         141.4813  144.5194  158.8184 N.3     1  UNL1       -0.2682
     16 C         141.1060  143.1450  158.3490 C.3     1  UNL1        0.0771
     17 C         140.5766  142.1373  159.3258 C.3     1  UNL1        0.0441
     18 C         139.6423  143.0041  165.7040 C.3     1  UNL1        0.1378
     19 C         142.7646  142.2820  168.8630 C.ar    1  UNL1        0.1387
     20 C         143.1143  142.1241  167.4130 C.ar    1  UNL1        0.0366
     21 C         142.0735  142.3648  166.3599 C.ar    1  UNL1        0.0007
     22 C         140.6830  142.7634  166.7570 C.ar    1  UNL1        0.0007
     23 C         140.3334  142.9213  168.2071 C.ar    1  UNL1        0.0007
     24 C         141.3742  142.6806  169.2601 C.ar    1  UNL1        0.0366
     25 C         144.9219  143.0249  170.1058 C.3     1  UNL1        0.2525
     26 O         143.8054  142.0413  169.9161 O.3     1  UNL1       -0.4714
     27 C         142.0107  145.5270  157.8416 C.3     1  UNL1        0.0725
     28 C         141.1843  145.9281  156.6558 C.3     1  UNL1        0.0210
     29 C         141.6480  145.5907  155.2698 C.3     1  UNL1        0.0335
     30 C         140.8217  145.9918  154.0840 C.3     1  UNL1        0.1422
     31 O         139.5316  146.7303  154.2841 O.3     1  UNL1       -0.3538
     32 C         139.0678  147.0678  155.6701 C.3     1  UNL1        0.1422
     33 C         139.8941  146.6667  156.8560 C.3     1  UNL1        0.0335
@<TRIPOS>BOND
     1    25    26    1
     2    26    19    1
     3    19    20   ar
     4    20    21   ar
     5    21    22   ar
     6    22    18    1
     7    18     1    1
     8     1     2   ar
     9     2     3    2
    10     2     4   ar
    11     4     5   ar
    12     5     6   ar
    13     6     7   ar
    14     7     8   ar
    15     8     9   ar
    16     9    10   ar
    17    10    11   ar
    18    11    12   ar
    19    12    13   ar
    20    11    14    1
    21    14    15    1
    22    15    27    1
    23    27    28    1
    24    28    29    1
    25    29    30    1
    26    30    31    1
    27    31    32    1
    28    32    33    1
    29    15    16    1
    30    16    17    1
    31    22    23   ar
    32    23    24   ar
    33    24    19   ar
    34    13     1   ar
    35    33    28    1
    36     8     4   ar
    37    13     9   ar
    38    17    10    1
