@<TRIPOS>MOLECULE
*****
 36 39 0 0 0
SMALL
GASTEIGER

@<TRIPOS>ATOM
      1 O         138.4972  138.0973  162.3640 O.2     1  UNL1       -0.2224
      2 C         138.5828  138.9564  163.5905 C.2     1  UNL1        0.4453
      3 N         139.7141  138.7719  164.5581 N.am    1  UNL1       -0.0488
      4 S         139.7996  139.6310  165.7847 S.O2    1  UNL1        0.0964
      5 O         138.9243  138.6628  166.5239 O.2     1  UNL1       -0.1482
      6 O         140.6750  140.5992  165.0455 O.2     1  UNL1       -0.1482
      7 C         139.8852  140.4902  167.0113 C.ar    1  UNL1        0.1272
      8 C         140.4727  141.8675  166.9227 C.ar    1  UNL1        0.0211
      9 C         140.5582  142.7267  168.1493 C.ar    1  UNL1        0.0128
     10 C         140.0563  142.2085  169.4644 C.ar    1  UNL1        0.0578
     11 CL        140.1418  143.0677  170.6910 Cl      1  UNL1       -0.0822
     12 C         139.4688  140.8312  169.5530 C.ar    1  UNL1        0.0128
     13 C         139.3832  139.9720  168.3264 C.ar    1  UNL1        0.0211
     14 N         140.7598  137.7282  164.2990 N.pl3   1  UNL1       -0.2381
     15 H         140.7138  136.8600  164.7609 H       1  UNL1        0.1721
     16 C         141.8756  138.0073  163.3362 C.ar    1  UNL1        0.0631
     17 C         141.7435  137.6034  161.8976 C.ar    1  UNL1        0.0159
     18 C         142.8593  137.8826  160.9348 C.ar    1  UNL1        0.0013
     19 C         144.1072  138.5656  161.4105 C.ar    1  UNL1        0.0001
     20 C         144.2393  138.9694  162.8490 C.ar    1  UNL1        0.0013
     21 C         143.1235  138.6903  163.8119 C.ar    1  UNL1        0.0159
     22 O         137.5370  140.0001  163.8496 O.3     1  UNL1       -0.4080
     23 C         137.7684  141.4174  163.4163 C.ar    1  UNL1        0.1503
     24 C         137.7589  142.5228  164.4302 C.ar    1  UNL1        0.0408
     25 C         137.9903  143.9400  163.9969 C.ar    1  UNL1        0.0400
     26 C         138.2312  144.2519  162.5496 C.ar    1  UNL1        0.1393
     27 C         138.2407  143.1466  161.5356 C.ar    1  UNL1        0.0400
     28 C         138.0093  141.7294  161.9690 C.ar    1  UNL1        0.0408
     29 O         138.4626  145.6693  162.1162 O.3     1  UNL1       -0.4706
     30 C         139.8615  146.1793  161.9352 C.3     1  UNL1        0.2320
     31 C         141.0295  145.3064  162.2871 C.ar    1  UNL1        0.0212
     32 C         141.7117  144.5008  161.2215 C.ar    1  UNL1       -0.0007
     33 C         142.8797  143.6279  161.5734 C.ar    1  UNL1       -0.0002
     34 C         143.3654  143.5606  162.9910 C.ar    1  UNL1       -0.0000
     35 C         142.6832  144.3662  164.0566 C.ar    1  UNL1       -0.0002
     36 C         141.5152  145.2390  163.7047 C.ar    1  UNL1       -0.0007
@<TRIPOS>BOND
     1     1     2    2
     2     2    22    1
     3    22    23    1
     4    23    24   ar
     5    24    25   ar
     6    25    26   ar
     7    26    29    1
     8    29    30    1
     9    30    31    1
    10    31    32   ar
    11    32    33   ar
    12    33    34   ar
    13    34    35   ar
    14    35    36   ar
    15    26    27   ar
    16    27    28   ar
    17     2     3   am
    18     3    14    1
    19    14    16    1
    20    16    17   ar
    21    17    18   ar
    22    18    19   ar
    23    19    20   ar
    24    20    21   ar
    25     3     4    1
    26     4     5    2
    27     4     6    2
    28     4     7    1
    29     7     8   ar
    30     8     9   ar
    31     9    10   ar
    32    10    11    1
    33    10    12   ar
    34    12    13   ar
    35    28    23   ar
    36    21    16   ar
    37    13     7   ar
    38    36    31   ar
    39    14    15    1
@<TRIPOS>MOLECULE
*****
 36 39 0 0 0
SMALL
GASTEIGER

@<TRIPOS>ATOM
      1 O         144.1687  137.6629  166.9873 O.2     1  UNL1       -0.2224
      2 C         143.6282  138.7989  166.1703 C.2     1  UNL1        0.4453
      3 N         142.9199  139.9367  166.8439 N.am    1  UNL1       -0.0488
      4 S         142.3794  141.0727  166.0269 S.O2    1  UNL1        0.0964
      5 O         141.0263  140.4253  166.0220 O.2     1  UNL1       -0.1482
      6 O         143.7325  141.7201  166.0319 O.2     1  UNL1       -0.1482
      7 C         141.8389  142.2086  165.2099 C.ar    1  UNL1        0.1272
      8 C         142.3931  142.4793  163.8426 C.ar    1  UNL1        0.0211
      9 C         141.8526  143.6152  163.0256 C.ar    1  UNL1        0.0128
     10 C         140.7578  144.4805  163.5759 C.ar    1  UNL1        0.0578
     11 CL        140.2173  145.6164  162.7589 Cl      1  UNL1       -0.0822
     12 C         140.2035  144.2098  164.9433 C.ar    1  UNL1        0.0128
     13 C         140.7441  143.0739  165.7603 C.ar    1  UNL1        0.0211
     14 N         142.7522  139.9386  168.3345 N.pl3   1  UNL1       -0.2381
     15 H         143.2367  139.2820  168.8852 H       1  UNL1        0.1721
     16 C         141.8463  140.9410  168.9860 C.ar    1  UNL1        0.0631
     17 C         142.3396  142.3308  169.2604 C.ar    1  UNL1        0.0159
     18 C         141.4337  143.3332  169.9118 C.ar    1  UNL1        0.0013
     19 C         140.0345  142.9459  170.2890 C.ar    1  UNL1        0.0001
     20 C         139.5412  141.5562  170.0146 C.ar    1  UNL1        0.0013
     21 C         140.4471  140.5537  169.3631 C.ar    1  UNL1        0.0159
     22 O         143.7959  138.7970  164.6797 O.3     1  UNL1       -0.4080
     23 C         142.6117  138.5520  163.7920 C.ar    1  UNL1        0.1503
     24 C         141.5150  137.6326  164.2414 C.ar    1  UNL1        0.0408
     25 C         140.3310  137.3877  163.3537 C.ar    1  UNL1        0.0400
     26 C         140.2437  138.0621  162.0167 C.ar    1  UNL1        0.1393
     27 C         141.3404  138.9814  161.5674 C.ar    1  UNL1        0.0400
     28 C         142.5244  139.2264  162.4550 C.ar    1  UNL1        0.0408
     29 O         139.0595  137.8171  161.1290 O.3     1  UNL1       -0.4706
     30 C         137.7806  138.5656  161.3611 C.3     1  UNL1        0.2320
     31 C         137.8187  140.0179  161.7348 C.ar    1  UNL1        0.0212
     32 C         138.0958  141.0548  160.6870 C.ar    1  UNL1       -0.0007
     33 C         138.1339  142.5070  161.0607 C.ar    1  UNL1       -0.0002
     34 C         137.8949  142.9222  162.4822 C.ar    1  UNL1       -0.0000
     35 C         137.6179  141.8852  163.5299 C.ar    1  UNL1       -0.0002
     36 C         137.5797  140.4330  163.1562 C.ar    1  UNL1       -0.0007
@<TRIPOS>BOND
     1     1     2    2
     2     2    22    1
     3    22    23    1
     4    23    24   ar
     5    24    25   ar
     6    25    26   ar
     7    26    29    1
     8    29    30    1
     9    30    31    1
    10    31    32   ar
    11    32    33   ar
    12    33    34   ar
    13    34    35   ar
    14    35    36   ar
    15    26    27   ar
    16    27    28   ar
    17     2     3   am
    18     3    14    1
    19    14    16    1
    20    16    17   ar
    21    17    18   ar
    22    18    19   ar
    23    19    20   ar
    24    20    21   ar
    25     3     4    1
    26     4     5    2
    27     4     6    2
    28     4     7    1
    29     7     8   ar
    30     8     9   ar
    31     9    10   ar
    32    10    11    1
    33    10    12   ar
    34    12    13   ar
    35    28    23   ar
    36    21    16   ar
    37    13     7   ar
    38    36    31   ar
    39    14    15    1
@<TRIPOS>MOLECULE
*****
 36 39 0 0 0
SMALL
GASTEIGER

@<TRIPOS>ATOM
      1 O         137.3570  138.6733  166.8303 O.2     1  UNL1       -0.2224
      2 C         138.6072  139.0764  166.1060 C.2     1  UNL1        0.4453
      3 N         139.7097  139.7755  166.8449 N.am    1  UNL1       -0.0488
      4 S         140.9599  140.1786  166.1206 S.O2    1  UNL1        0.0964
      5 O         140.3993  141.5552  165.9192 O.2     1  UNL1       -0.1482
      6 O         141.5205  138.8020  166.3221 O.2     1  UNL1       -0.1482
      7 C         142.2101  140.5817  165.3964 C.ar    1  UNL1        0.1272
      8 C         142.7158  139.7516  164.2540 C.ar    1  UNL1        0.0211
      9 C         143.9660  140.1547  163.5297 C.ar    1  UNL1        0.0128
     10 C         144.7104  141.3880  163.9478 C.ar    1  UNL1        0.0578
     11 CL        145.9606  141.7911  163.2235 Cl      1  UNL1       -0.0822
     12 C         144.2046  142.2182  165.0902 C.ar    1  UNL1        0.0128
     13 C         142.9545  141.8151  165.8145 C.ar    1  UNL1        0.0211
     14 N         139.5621  140.0713  168.3080 N.pl3   1  UNL1       -0.2381
     15 H         138.8023  139.6990  168.8113 H       1  UNL1        0.1721
     16 C         140.5721  140.9344  169.0043 C.ar    1  UNL1        0.0631
     17 C         141.8464  140.3324  169.5178 C.ar    1  UNL1        0.0159
     18 C         142.8565  141.1955  170.2141 C.ar    1  UNL1        0.0013
     19 C         142.5922  142.6607  170.3968 C.ar    1  UNL1        0.0001
     20 C         141.3180  143.2627  169.8833 C.ar    1  UNL1        0.0013
     21 C         140.3079  142.3996  169.1870 C.ar    1  UNL1        0.0159
     22 O         138.7549  138.7806  164.6430 O.3     1  UNL1       -0.4080
     23 C         138.6896  139.8959  163.6419 C.ar    1  UNL1        0.1503
     24 C         139.5478  139.8514  162.4125 C.ar    1  UNL1        0.0408
     25 C         139.4825  140.9666  161.4116 C.ar    1  UNL1        0.0400
     26 C         138.5591  142.1263  161.6400 C.ar    1  UNL1        0.1393
     27 C         137.7009  142.1708  162.8694 C.ar    1  UNL1        0.0400
     28 C         137.7661  141.0556  163.8703 C.ar    1  UNL1        0.0408
     29 O         138.4938  143.2416  160.6389 O.3     1  UNL1       -0.4706
     30 C         139.7405  143.9866  160.2639 C.3     1  UNL1        0.2320
     31 C         140.7500  144.3373  161.3165 C.ar    1  UNL1        0.0212
     32 C         142.1679  143.8666  161.1822 C.ar    1  UNL1       -0.0007
     33 C         143.1774  144.2172  162.2348 C.ar    1  UNL1       -0.0002
     34 C         142.7690  145.0385  163.4217 C.ar    1  UNL1       -0.0000
     35 C         141.3511  145.5092  163.5559 C.ar    1  UNL1       -0.0002
     36 C         140.3417  145.1586  162.5034 C.ar    1  UNL1       -0.0007
@<TRIPOS>BOND
     1     1     2    2
     2     2    22    1
     3    22    23    1
     4    23    24   ar
     5    24    25   ar
     6    25    26   ar
     7    26    29    1
     8    29    30    1
     9    30    31    1
    10    31    32   ar
    11    32    33   ar
    12    33    34   ar
    13    34    35   ar
    14    35    36   ar
    15    26    27   ar
    16    27    28   ar
    17     2     3   am
    18     3    14    1
    19    14    16    1
    20    16    17   ar
    21    17    18   ar
    22    18    19   ar
    23    19    20   ar
    24    20    21   ar
    25     3     4    1
    26     4     5    2
    27     4     6    2
    28     4     7    1
    29     7     8   ar
    30     8     9   ar
    31     9    10   ar
    32    10    11    1
    33    10    12   ar
    34    12    13   ar
    35    28    23   ar
    36    21    16   ar
    37    13     7   ar
    38    36    31   ar
    39    14    15    1
@<TRIPOS>MOLECULE
*****
 36 39 0 0 0
SMALL
GASTEIGER

@<TRIPOS>ATOM
      1 O         144.2745  137.6326  167.3306 O.2     1  UNL1       -0.2224
      2 C         143.2887  138.3936  166.4945 C.2     1  UNL1        0.4453
      3 N         142.5145  139.5292  167.0955 N.am    1  UNL1       -0.0488
      4 S         141.5286  140.2902  166.2594 S.O2    1  UNL1        0.0964
      5 O         140.5239  139.1918  166.4444 O.2     1  UNL1       -0.1482
      6 O         142.5333  141.3885  166.0744 O.2     1  UNL1       -0.1482
      7 C         140.5428  141.0511  165.4233 C.ar    1  UNL1        0.1272
      8 C         140.0256  140.4570  164.1468 C.ar    1  UNL1        0.0211
      9 C         139.0398  141.2180  163.3107 C.ar    1  UNL1        0.0128
     10 C         138.5711  142.5731  163.7511 C.ar    1  UNL1        0.0578
     11 CL        137.5853  143.3341  162.9150 Cl      1  UNL1       -0.0822
     12 C         139.0883  143.1673  165.0277 C.ar    1  UNL1        0.0128
     13 C         140.0741  142.4063  165.8638 C.ar    1  UNL1        0.0211
     14 N         142.7261  139.9038  168.5324 N.pl3   1  UNL1       -0.2381
     15 H         143.4413  139.4722  169.0534 H       1  UNL1        0.1721
     16 C         141.8481  140.9360  169.1755 C.ar    1  UNL1        0.0631
     17 C         140.4788  140.5599  169.6590 C.ar    1  UNL1        0.0159
     18 C         139.6008  141.5921  170.3021 C.ar    1  UNL1        0.0013
     19 C         140.0919  143.0003  170.4617 C.ar    1  UNL1        0.0001
     20 C         141.4611  143.3765  169.9782 C.ar    1  UNL1        0.0013
     21 C         142.3392  142.3442  169.3351 C.ar    1  UNL1        0.0159
     22 O         143.0770  138.0190  165.0576 O.3     1  UNL1       -0.4080
     23 C         143.4909  138.9628  163.9677 C.ar    1  UNL1        0.1503
     24 C         142.7060  139.0246  162.6909 C.ar    1  UNL1        0.0408
     25 C         143.1200  139.9684  161.6010 C.ar    1  UNL1        0.0400
     26 C         144.3187  140.8504  161.7879 C.ar    1  UNL1        0.1393
     27 C         145.1036  140.7887  163.0647 C.ar    1  UNL1        0.0400
     28 C         144.6897  139.8449  164.1545 C.ar    1  UNL1        0.0408
     29 O         144.7326  141.7943  160.6980 O.3     1  UNL1       -0.4706
     30 C         143.9061  143.0114  160.4059 C.3     1  UNL1        0.2320
     31 C         143.2871  143.7856  161.5318 C.ar    1  UNL1        0.0212
     32 C         141.8103  144.0481  161.5387 C.ar    1  UNL1       -0.0007
     33 C         141.1915  144.8223  162.6646 C.ar    1  UNL1       -0.0002
     34 C         142.0495  145.3340  163.7835 C.ar    1  UNL1       -0.0000
     35 C         143.5263  145.0716  163.7766 C.ar    1  UNL1       -0.0002
     36 C         144.1451  144.2974  162.6507 C.ar    1  UNL1       -0.0007
@<TRIPOS>BOND
     1     1     2    2
     2     2    22    1
     3    22    23    1
     4    23    24   ar
     5    24    25   ar
     6    25    26   ar
     7    26    29    1
     8    29    30    1
     9    30    31    1
    10    31    32   ar
    11    32    33   ar
    12    33    34   ar
    13    34    35   ar
    14    35    36   ar
    15    26    27   ar
    16    27    28   ar
    17     2     3   am
    18     3    14    1
    19    14    16    1
    20    16    17   ar
    21    17    18   ar
    22    18    19   ar
    23    19    20   ar
    24    20    21   ar
    25     3     4    1
    26     4     5    2
    27     4     6    2
    28     4     7    1
    29     7     8   ar
    30     8     9   ar
    31     9    10   ar
    32    10    11    1
    33    10    12   ar
    34    12    13   ar
    35    28    23   ar
    36    21    16   ar
    37    13     7   ar
    38    36    31   ar
    39    14    15    1
@<TRIPOS>MOLECULE
*****
 36 39 0 0 0
SMALL
GASTEIGER

@<TRIPOS>ATOM
      1 O         137.2996  138.2903  166.8626 O.2     1  UNL1       -0.2224
      2 C         138.2389  139.2652  166.2166 C.2     1  UNL1        0.4453
      3 N         139.3322  139.9006  167.0235 N.am    1  UNL1       -0.0488
      4 S         140.2715  140.8755  166.3775 S.O2    1  UNL1        0.0964
      5 O         139.2332  141.9519  166.4922 O.2     1  UNL1       -0.1482
      6 O         141.3098  139.7991  166.2627 O.2     1  UNL1       -0.1482
      7 C         141.2107  141.8504  165.7314 C.ar    1  UNL1        0.1272
      8 C         140.8076  142.5580  164.4718 C.ar    1  UNL1        0.0211
      9 C         141.7469  143.5329  163.8258 C.ar    1  UNL1        0.0128
     10 C         143.0893  143.8001  164.4393 C.ar    1  UNL1        0.0578
     11 CL        144.0286  144.7750  163.7933 Cl      1  UNL1       -0.0822
     12 C         143.4925  143.0925  165.6990 C.ar    1  UNL1        0.0128
     13 C         142.5532  142.1176  166.3451 C.ar    1  UNL1        0.0211
     14 N         139.4861  139.5611  168.4764 N.pl3   1  UNL1       -0.2381
     15 H         139.0103  138.7864  168.8541 H       1  UNL1        0.1721
     16 C         140.3652  140.4020  169.3540 C.ar    1  UNL1        0.0631
     17 C         139.8344  141.6716  169.9511 C.ar    1  UNL1        0.0159
     18 C         140.7134  142.5125  170.8287 C.ar    1  UNL1        0.0013
     19 C         142.1232  142.0839  171.1092 C.ar    1  UNL1        0.0001
     20 C         142.6540  140.8144  170.5122 C.ar    1  UNL1        0.0013
     21 C         141.7750  139.9734  169.6346 C.ar    1  UNL1        0.0159
     22 O         138.0850  139.6047  164.7637 O.3     1  UNL1       -0.4080
     23 C         139.0663  139.0734  163.7612 C.ar    1  UNL1        0.1503
     24 C         139.7911  137.7880  164.0298 C.ar    1  UNL1        0.0408
     25 C         140.7724  137.2568  163.0273 C.ar    1  UNL1        0.0400
     26 C         141.0288  138.0110  161.7564 C.ar    1  UNL1        0.1393
     27 C         140.3040  139.2965  161.4879 C.ar    1  UNL1        0.0400
     28 C         139.3227  139.8277  162.4903 C.ar    1  UNL1        0.0408
     29 O         142.0102  137.4798  160.7539 O.3     1  UNL1       -0.4706
     30 C         143.4821  137.6670  160.9734 C.3     1  UNL1        0.2320
     31 C         143.9873  138.9029  161.6571 C.ar    1  UNL1        0.0212
     32 C         144.3509  138.8598  163.1117 C.ar    1  UNL1       -0.0007
     33 C         144.8560  140.0957  163.7954 C.ar    1  UNL1       -0.0002
     34 C         144.9975  141.3746  163.0245 C.ar    1  UNL1       -0.0000
     35 C         144.6338  141.4177  161.5699 C.ar    1  UNL1       -0.0002
     36 C         144.1287  140.1819  160.8863 C.ar    1  UNL1       -0.0007
@<TRIPOS>BOND
     1     1     2    2
     2     2    22    1
     3    22    23    1
     4    23    24   ar
     5    24    25   ar
     6    25    26   ar
     7    26    29    1
     8    29    30    1
     9    30    31    1
    10    31    32   ar
    11    32    33   ar
    12    33    34   ar
    13    34    35   ar
    14    35    36   ar
    15    26    27   ar
    16    27    28   ar
    17     2     3   am
    18     3    14    1
    19    14    16    1
    20    16    17   ar
    21    17    18   ar
    22    18    19   ar
    23    19    20   ar
    24    20    21   ar
    25     3     4    1
    26     4     5    2
    27     4     6    2
    28     4     7    1
    29     7     8   ar
    30     8     9   ar
    31     9    10   ar
    32    10    11    1
    33    10    12   ar
    34    12    13   ar
    35    28    23   ar
    36    21    16   ar
    37    13     7   ar
    38    36    31   ar
    39    14    15    1
@<TRIPOS>MOLECULE
*****
 36 39 0 0 0
SMALL
GASTEIGER

@<TRIPOS>ATOM
      1 O         138.5293  137.8680  162.8448 O.2     1  UNL1       -0.2224
      2 C         139.1842  138.3359  164.1105 C.2     1  UNL1        0.4453
      3 N         138.6538  139.5417  164.8280 N.am    1  UNL1       -0.0488
      4 S         139.3088  140.0097  166.0937 S.O2    1  UNL1        0.0964
      5 O         138.3722  139.1544  166.8945 O.2     1  UNL1       -0.1482
      6 O         140.2453  140.8650  165.2929 O.2     1  UNL1       -0.1482
      7 C         139.9637  140.4777  167.3594 C.ar    1  UNL1        0.1272
      8 C         139.4515  140.0055  168.6878 C.ar    1  UNL1        0.0211
      9 C         140.1065  140.4735  169.9535 C.ar    1  UNL1        0.0128
     10 C         141.2737  141.4136  169.8909 C.ar    1  UNL1        0.0578
     11 CL        141.9286  141.8815  171.1566 Cl      1  UNL1       -0.0822
     12 C         141.7859  141.8857  168.5624 C.ar    1  UNL1        0.0128
     13 C         141.1309  141.4178  167.2967 C.ar    1  UNL1        0.0211
     14 N         137.4685  140.2795  164.2798 N.pl3   1  UNL1       -0.2381
     15 H         136.5732  139.8719  164.3201 H       1  UNL1        0.1721
     16 C         137.6472  141.6383  163.6701 C.ar    1  UNL1        0.0631
     17 C         137.5477  142.8645  164.5285 C.ar    1  UNL1        0.0159
     18 C         137.7264  144.2233  163.9188 C.ar    1  UNL1        0.0013
     19 C         138.0046  144.3560  162.4508 C.ar    1  UNL1        0.0001
     20 C         138.1040  143.1299  161.5925 C.ar    1  UNL1        0.0013
     21 C         137.9253  141.7710  162.2021 C.ar    1  UNL1        0.0159
     22 O         140.3696  137.5981  164.6587 O.3     1  UNL1       -0.4080
     23 C         141.7391  138.2028  164.5636 C.ar    1  UNL1        0.1503
     24 C         142.5838  138.3438  165.7950 C.ar    1  UNL1        0.0408
     25 C         143.9532  138.9485  165.6998 C.ar    1  UNL1        0.0400
     26 C         144.4779  139.4121  164.3732 C.ar    1  UNL1        0.1393
     27 C         143.6331  139.2710  163.1418 C.ar    1  UNL1        0.0400
     28 C         142.2637  138.6664  163.2370 C.ar    1  UNL1        0.0408
     29 O         145.8474  140.0167  164.2780 O.3     1  UNL1       -0.4706
     30 C         146.0143  141.4202  163.7759 C.3     1  UNL1        0.2320
     31 C         144.8445  142.3593  163.7714 C.ar    1  UNL1        0.0212
     32 C         144.3589  142.9462  162.4792 C.ar    1  UNL1       -0.0007
     33 C         143.1892  143.8852  162.4748 C.ar    1  UNL1       -0.0002
     34 C         142.5052  144.2374  163.7625 C.ar    1  UNL1       -0.0000
     35 C         142.9909  143.6505  165.0546 C.ar    1  UNL1       -0.0002
     36 C         144.1606  142.7115  165.0591 C.ar    1  UNL1       -0.0007
@<TRIPOS>BOND
     1     1     2    2
     2     2    22    1
     3    22    23    1
     4    23    24   ar
     5    24    25   ar
     6    25    26   ar
     7    26    29    1
     8    29    30    1
     9    30    31    1
    10    31    32   ar
    11    32    33   ar
    12    33    34   ar
    13    34    35   ar
    14    35    36   ar
    15    26    27   ar
    16    27    28   ar
    17     2     3   am
    18     3    14    1
    19    14    16    1
    20    16    17   ar
    21    17    18   ar
    22    18    19   ar
    23    19    20   ar
    24    20    21   ar
    25     3     4    1
    26     4     5    2
    27     4     6    2
    28     4     7    1
    29     7     8   ar
    30     8     9   ar
    31     9    10   ar
    32    10    11    1
    33    10    12   ar
    34    12    13   ar
    35    28    23   ar
    36    21    16   ar
    37    13     7   ar
    38    36    31   ar
    39    14    15    1
@<TRIPOS>MOLECULE
*****
 36 39 0 0 0
SMALL
GASTEIGER

@<TRIPOS>ATOM
      1 O         139.2500  139.6048  167.4059 O.2     1  UNL1       -0.2224
      2 C         139.5813  139.5575  165.9437 C.2     1  UNL1        0.4453
      3 N         140.9722  139.2122  165.5005 N.am    1  UNL1       -0.0488
      4 S         141.3034  139.1649  164.0383 S.O2    1  UNL1        0.0964
      5 O         141.7138  140.6069  164.0846 O.2     1  UNL1       -0.1482
      6 O         140.8930  137.7229  163.9920 O.2     1  UNL1       -0.1482
      7 C         141.6346  139.1176  162.5761 C.ar    1  UNL1        0.1272
      8 C         141.3725  140.3129  161.7087 C.ar    1  UNL1        0.0211
      9 C         141.7037  140.2656  160.2465 C.ar    1  UNL1        0.0128
     10 C         142.2971  139.0229  159.6517 C.ar    1  UNL1        0.0578
     11 CL        142.6283  138.9756  158.1895 Cl      1  UNL1       -0.0822
     12 C         142.5593  137.8275  160.5192 C.ar    1  UNL1        0.0128
     13 C         142.2280  137.8749  161.9814 C.ar    1  UNL1        0.0211
     14 N         142.0317  138.9142  166.5196 N.pl3   1  UNL1       -0.2381
     15 H         142.4582  138.0272  166.5413 H       1  UNL1        0.1721
     16 C         142.4415  139.9678  167.5055 C.ar    1  UNL1        0.0631
     17 C         142.5186  139.6381  168.9668 C.ar    1  UNL1        0.0159
     18 C         142.9283  140.6917  169.9527 C.ar    1  UNL1        0.0013
     19 C         143.2610  142.0749  169.4774 C.ar    1  UNL1        0.0001
     20 C         143.1839  142.4046  168.0161 C.ar    1  UNL1        0.0013
     21 C         142.7741  141.3511  167.0301 C.ar    1  UNL1        0.0159
     22 O         138.5217  139.8555  164.9246 O.3     1  UNL1       -0.4080
     23 C         138.4715  141.2027  164.2668 C.ar    1  UNL1        0.1503
     24 C         138.8153  142.4338  165.0516 C.ar    1  UNL1        0.0408
     25 C         138.7650  143.7809  164.3937 C.ar    1  UNL1        0.0400
     26 C         138.3710  143.8968  162.9510 C.ar    1  UNL1        0.1393
     27 C         138.0273  142.6656  162.1662 C.ar    1  UNL1        0.0400
     28 C         138.0775  141.3186  162.8241 C.ar    1  UNL1        0.0408
     29 O         138.3208  145.2440  162.2932 O.3     1  UNL1       -0.4706
     30 C         139.5914  145.9924  162.0185 C.3     1  UNL1        0.2320
     31 C         140.9159  145.3082  162.1853 C.ar    1  UNL1        0.0212
     32 C         141.7109  145.5091  163.4413 C.ar    1  UNL1       -0.0007
     33 C         143.0353  144.8249  163.6080 C.ar    1  UNL1       -0.0002
     34 C         143.5646  143.9398  162.5188 C.ar    1  UNL1       -0.0000
     35 C         142.7695  143.7389  161.2628 C.ar    1  UNL1       -0.0002
     36 C         141.4452  144.4230  161.0961 C.ar    1  UNL1       -0.0007
@<TRIPOS>BOND
     1     1     2    2
     2     2    22    1
     3    22    23    1
     4    23    24   ar
     5    24    25   ar
     6    25    26   ar
     7    26    29    1
     8    29    30    1
     9    30    31    1
    10    31    32   ar
    11    32    33   ar
    12    33    34   ar
    13    34    35   ar
    14    35    36   ar
    15    26    27   ar
    16    27    28   ar
    17     2     3   am
    18     3    14    1
    19    14    16    1
    20    16    17   ar
    21    17    18   ar
    22    18    19   ar
    23    19    20   ar
    24    20    21   ar
    25     3     4    1
    26     4     5    2
    27     4     6    2
    28     4     7    1
    29     7     8   ar
    30     8     9   ar
    31     9    10   ar
    32    10    11    1
    33    10    12   ar
    34    12    13   ar
    35    28    23   ar
    36    21    16   ar
    37    13     7   ar
    38    36    31   ar
    39    14    15    1
@<TRIPOS>MOLECULE
*****
 36 39 0 0 0
SMALL
GASTEIGER

@<TRIPOS>ATOM
      1 O         138.2078  139.7548  158.3833 O.2     1  UNL1       -0.2224
      2 C         138.8658  139.5384  159.7137 C.2     1  UNL1        0.4453
      3 N         140.3571  139.4007  159.7993 N.am    1  UNL1       -0.0488
      4 S         141.0152  139.1843  161.1298 S.O2    1  UNL1        0.0964
      5 O         140.6343  137.7342  161.0823 O.2     1  UNL1       -0.1482
      6 O         141.3960  140.6344  161.1773 O.2     1  UNL1       -0.1482
      7 C         141.6732  138.9679  162.4602 C.ar    1  UNL1        0.1272
      8 C         143.1390  139.2402  162.6251 C.ar    1  UNL1        0.0211
      9 C         143.7971  139.0238  163.9556 C.ar    1  UNL1        0.0128
     10 C         142.9893  138.5351  165.1212 C.ar    1  UNL1        0.0578
     11 CL        143.6474  138.3187  166.4516 Cl      1  UNL1       -0.0822
     12 C         141.5235  138.2627  164.9563 C.ar    1  UNL1        0.0128
     13 C         140.8654  138.4792  163.6259 C.ar    1  UNL1        0.0211
     14 N         141.1902  139.4794  158.5545 N.pl3   1  UNL1       -0.2381
     15 H         141.5793  140.3399  158.2762 H       1  UNL1        0.1721
     16 C         141.4305  138.2472  157.7337 C.ar    1  UNL1        0.0631
     17 C         140.4410  137.8420  156.6816 C.ar    1  UNL1        0.0159
     18 C         140.6813  136.6098  155.8608 C.ar    1  UNL1        0.0013
     19 C         141.9111  135.7826  156.0921 C.ar    1  UNL1        0.0001
     20 C         142.9005  136.1876  157.1441 C.ar    1  UNL1        0.0013
     21 C         142.6602  137.4200  157.9650 C.ar    1  UNL1        0.0159
     22 O         138.0327  139.4596  160.9586 O.3     1  UNL1       -0.4080
     23 C         137.9399  140.6435  161.8751 C.ar    1  UNL1        0.1503
     24 C         138.0736  142.0317  161.3230 C.ar    1  UNL1        0.0408
     25 C         137.9809  143.2155  162.2396 C.ar    1  UNL1        0.0400
     26 C         137.7544  143.0110  163.7082 C.ar    1  UNL1        0.1393
     27 C         137.6207  141.6227  164.2603 C.ar    1  UNL1        0.0400
     28 C         137.7135  140.4390  163.3438 C.ar    1  UNL1        0.0408
     29 O         137.6616  144.1948  164.6248 O.3     1  UNL1       -0.4706
     30 C         138.8974  144.7314  165.2842 C.3     1  UNL1        0.2320
     31 C         140.1442  143.8987  165.3315 C.ar    1  UNL1        0.0212
     32 C         140.3194  142.8715  166.4105 C.ar    1  UNL1       -0.0007
     33 C         141.5661  142.0388  166.4578 C.ar    1  UNL1       -0.0002
     34 C         142.6376  142.2332  165.4262 C.ar    1  UNL1       -0.0000
     35 C         142.4623  143.2604  164.3472 C.ar    1  UNL1       -0.0002
     36 C         141.2156  144.0931  164.2999 C.ar    1  UNL1       -0.0007
@<TRIPOS>BOND
     1     1     2    2
     2     2    22    1
     3    22    23    1
     4    23    24   ar
     5    24    25   ar
     6    25    26   ar
     7    26    29    1
     8    29    30    1
     9    30    31    1
    10    31    32   ar
    11    32    33   ar
    12    33    34   ar
    13    34    35   ar
    14    35    36   ar
    15    26    27   ar
    16    27    28   ar
    17     2     3   am
    18     3    14    1
    19    14    16    1
    20    16    17   ar
    21    17    18   ar
    22    18    19   ar
    23    19    20   ar
    24    20    21   ar
    25     3     4    1
    26     4     5    2
    27     4     6    2
    28     4     7    1
    29     7     8   ar
    30     8     9   ar
    31     9    10   ar
    32    10    11    1
    33    10    12   ar
    34    12    13   ar
    35    28    23   ar
    36    21    16   ar
    37    13     7   ar
    38    36    31   ar
    39    14    15    1
@<TRIPOS>MOLECULE
*****
 36 39 0 0 0
SMALL
GASTEIGER

@<TRIPOS>ATOM
      1 O         144.5594  139.3401  162.8337 O.2     1  UNL1       -0.2224
      2 C         144.0266  140.2466  163.9035 C.2     1  UNL1        0.4453
      3 N         143.0152  139.7342  164.8856 N.am    1  UNL1       -0.0488
      4 S         142.4824  140.6407  165.9554 S.O2    1  UNL1        0.0964
      5 O         141.3971  141.0987  165.0267 O.2     1  UNL1       -0.1482
      6 O         143.5677  140.1827  166.8840 O.2     1  UNL1       -0.1482
      7 C         141.9497  141.5472  167.0251 C.ar    1  UNL1        0.1272
      8 C         140.6252  142.2269  166.8412 C.ar    1  UNL1        0.0211
      9 C         140.0925  143.1334  167.9110 C.ar    1  UNL1        0.0128
     10 C         140.8841  143.3602  169.1646 C.ar    1  UNL1        0.0578
     11 CL        140.3514  144.2668  170.2344 Cl      1  UNL1       -0.0822
     12 C         142.2086  142.6806  169.3486 C.ar    1  UNL1        0.0128
     13 C         142.7414  141.7740  168.2789 C.ar    1  UNL1        0.0211
     14 N         142.5366  138.3153  164.7979 N.pl3   1  UNL1       -0.2381
     15 H         143.1001  137.5838  165.1392 H       1  UNL1        0.1721
     16 C         141.1994  138.0111  164.1903 C.ar    1  UNL1        0.0631
     17 C         140.0321  137.6813  165.0727 C.ar    1  UNL1        0.0159
     18 C         138.6949  137.3771  164.4651 C.ar    1  UNL1        0.0013
     19 C         138.5249  137.4027  162.9750 C.ar    1  UNL1        0.0001
     20 C         139.6921  137.7326  162.0925 C.ar    1  UNL1        0.0013
     21 C         141.0294  138.0368  162.7002 C.ar    1  UNL1        0.0159
     22 O         144.5053  141.6655  163.9911 O.3     1  UNL1       -0.4080
     23 C         143.6168  142.7861  163.5384 C.ar    1  UNL1        0.1503
     24 C         142.9965  142.7467  162.1733 C.ar    1  UNL1        0.0408
     25 C         142.1081  143.8673  161.7206 C.ar    1  UNL1        0.0400
     26 C         141.8399  145.0272  162.6332 C.ar    1  UNL1        0.1393
     27 C         142.4601  145.0665  163.9983 C.ar    1  UNL1        0.0400
     28 C         143.3486  143.9460  164.4510 C.ar    1  UNL1        0.0408
     29 O         140.9513  146.1478  162.1805 O.3     1  UNL1       -0.4706
     30 C         139.4672  145.9441  162.1039 C.3     1  UNL1        0.2320
     31 C         138.8499  144.7035  162.6782 C.ar    1  UNL1        0.0212
     32 C         138.5598  144.6211  164.1475 C.ar    1  UNL1       -0.0007
     33 C         137.9424  143.3805  164.7217 C.ar    1  UNL1       -0.0002
     34 C         137.6151  142.2223  163.8265 C.ar    1  UNL1       -0.0000
     35 C         137.9052  142.3046  162.3572 C.ar    1  UNL1       -0.0002
     36 C         138.5226  143.5452  161.7830 C.ar    1  UNL1       -0.0007
@<TRIPOS>BOND
     1     1     2    2
     2     2    22    1
     3    22    23    1
     4    23    24   ar
     5    24    25   ar
     6    25    26   ar
     7    26    29    1
     8    29    30    1
     9    30    31    1
    10    31    32   ar
    11    32    33   ar
    12    33    34   ar
    13    34    35   ar
    14    35    36   ar
    15    26    27   ar
    16    27    28   ar
    17     2     3   am
    18     3    14    1
    19    14    16    1
    20    16    17   ar
    21    17    18   ar
    22    18    19   ar
    23    19    20   ar
    24    20    21   ar
    25     3     4    1
    26     4     5    2
    27     4     6    2
    28     4     7    1
    29     7     8   ar
    30     8     9   ar
    31     9    10   ar
    32    10    11    1
    33    10    12   ar
    34    12    13   ar
    35    28    23   ar
    36    21    16   ar
    37    13     7   ar
    38    36    31   ar
    39    14    15    1
