@<TRIPOS>MOLECULE
*****
 33 36 0 0 0
SMALL
GASTEIGER

@<TRIPOS>ATOM
      1 O         139.6657  140.3054  157.3266 O.2     1  UNL1       -0.2522
      2 C         138.5768  140.1871  158.3514 C.2     1  UNL1        0.3078
      3 N         137.2103  140.7327  158.0601 N.am    1  UNL1       -0.2681
      4 N         138.8544  139.5232  159.6676 N.am    1  UNL1       -0.2611
      5 C         140.2209  138.9776  159.9589 C.3     1  UNL1        0.1123
      6 C         140.4985  138.3138  161.2750 C.3     1  UNL1        0.0940
      7 N         139.4095  138.1955  162.2998 N.3     1  UNL1       -0.2697
      8 C         138.0430  138.7411  162.0085 C.3     1  UNL1        0.0940
      9 C         137.7654  139.4050  160.6924 C.3     1  UNL1        0.1123
     10 H         136.4956  140.6551  158.7327 H       1  UNL1        0.1564
     11 C         136.9326  141.3966  156.7439 C.ar    1  UNL1        0.0525
     12 C         136.2840  140.6220  155.6352 C.ar    1  UNL1        0.0156
     13 C         136.0065  141.2859  154.3191 C.ar    1  UNL1        0.0135
     14 C         136.3775  142.7244  154.1117 C.ar    1  UNL1        0.0683
     15 CL        136.0999  143.3883  152.7955 Cl      1  UNL1       -0.0814
     16 C         137.0261  143.4990  155.2204 C.ar    1  UNL1        0.0694
     17 CL        137.3971  144.9375  155.0130 Cl      1  UNL1       -0.0813
     18 C         137.3037  142.8351  156.5365 C.ar    1  UNL1        0.0270
     19 C         139.6871  137.5316  163.6160 C.3     1  UNL1        0.0735
     20 C         139.6205  138.3270  164.8860 C.3     1  UNL1        0.0320
     21 C         138.4095  138.2345  165.7663 C.3     1  UNL1        0.0042
     22 C         138.3430  139.0299  167.0363 C.3     1  UNL1        0.0174
     23 C         139.4875  139.9178  167.4261 C.3     1  UNL1        0.0721
     24 N         140.6985  140.0102  166.5458 N.3     1  UNL1       -0.2723
     25 C         140.7650  139.2148  165.2757 C.3     1  UNL1        0.0734
     26 C         141.8430  140.8980  166.9355 C.3     1  UNL1        0.0768
     27 C         142.8423  141.3300  165.9036 C.3     1  UNL1        0.0437
     28 C         142.6741  142.6443  165.2007 C.ar    1  UNL1       -0.0208
     29 C         141.3000  143.1515  164.8774 C.ar    1  UNL1       -0.0042
     30 C         141.1318  144.4659  164.1744 C.ar    1  UNL1       -0.0003
     31 C         142.3377  145.2731  163.7949 C.ar    1  UNL1       -0.0000
     32 C         143.7119  144.7659  164.1182 C.ar    1  UNL1       -0.0003
     33 C         143.8801  143.4516  164.8211 C.ar    1  UNL1       -0.0042
@<TRIPOS>BOND
     1     1     2    2
     2     2     3   am
     3     3    11    1
     4    11    12   ar
     5    12    13   ar
     6    13    14   ar
     7    14    15    1
     8    14    16   ar
     9    16    17    1
    10    16    18   ar
    11     2     4   am
    12     4     5    1
    13     5     6    1
    14     6     7    1
    15     7    19    1
    16    20    19    1
    17    20    21    1
    18    21    22    1
    19    22    23    1
    20    23    24    1
    21    24    26    1
    22    26    27    1
    23    27    28    1
    24    28    29   ar
    25    29    30   ar
    26    30    31   ar
    27    31    32   ar
    28    32    33   ar
    29    24    25    1
    30     7     8    1
    31     8     9    1
    32    18    11   ar
    33     9     4    1
    34    25    20    1
    35    33    28   ar
    36     3    10    1
@<TRIPOS>MOLECULE
*****
 33 36 0 0 0
SMALL
GASTEIGER

@<TRIPOS>ATOM
      1 O         144.4092  137.6516  155.6684 O.2     1  UNL1       -0.2522
      2 C         143.3189  137.7566  156.6932 C.2     1  UNL1        0.3078
      3 N         142.4668  136.5626  157.0068 N.am    1  UNL1       -0.2681
      4 N         143.0808  139.0557  157.4045 N.am    1  UNL1       -0.2611
      5 C         143.9329  140.2496  157.0909 C.3     1  UNL1        0.1123
      6 C         143.6947  141.5486  157.8021 C.3     1  UNL1        0.0940
      7 N         142.6044  141.6536  158.8270 N.3     1  UNL1       -0.2697
      8 C         141.7523  140.4596  159.1405 C.3     1  UNL1        0.0940
      9 C         141.9905  139.1607  158.4293 C.3     1  UNL1        0.1123
     10 H         141.7513  136.6316  157.6794 H       1  UNL1        0.1564
     11 C         142.7050  135.2636  156.2955 C.ar    1  UNL1        0.0525
     12 C         141.8878  134.9084  155.0889 C.ar    1  UNL1        0.0156
     13 C         142.1260  133.6094  154.3778 C.ar    1  UNL1        0.0135
     14 C         143.1814  132.6656  154.8731 C.ar    1  UNL1        0.0683
     15 CL        143.4195  131.3666  154.1619 Cl      1  UNL1       -0.0814
     16 C         143.9986  133.0209  156.0797 C.ar    1  UNL1        0.0694
     17 CL        145.0541  132.0771  156.5751 Cl      1  UNL1       -0.0813
     18 C         143.7604  134.3198  156.7909 C.ar    1  UNL1        0.0270
     19 C         142.3662  142.9526  159.5382 C.3     1  UNL1        0.0735
     20 C         142.9449  143.1771  160.9037 C.3     1  UNL1        0.0320
     21 C         142.4639  144.3235  161.7430 C.3     1  UNL1        0.0042
     22 C         143.0425  144.5480  163.1085 C.3     1  UNL1        0.0174
     23 C         144.1023  143.6260  163.6349 C.3     1  UNL1        0.0721
     24 N         144.5833  142.4796  162.7956 N.3     1  UNL1       -0.2723
     25 C         144.0046  142.2552  161.4300 C.3     1  UNL1        0.0734
     26 C         145.6430  141.5577  163.3219 C.3     1  UNL1        0.0768
     27 C         145.2824  140.4846  164.3060 C.3     1  UNL1        0.0437
     28 C         144.1423  139.5538  164.0164 C.ar    1  UNL1       -0.0208
     29 C         143.1799  139.1850  165.1062 C.ar    1  UNL1       -0.0042
     30 C         142.0398  138.2542  164.8167 C.ar    1  UNL1       -0.0003
     31 C         141.8621  137.6923  163.4373 C.ar    1  UNL1       -0.0000
     32 C         142.8245  138.0612  162.3475 C.ar    1  UNL1       -0.0003
     33 C         143.9646  138.9919  162.6370 C.ar    1  UNL1       -0.0042
@<TRIPOS>BOND
     1     1     2    2
     2     2     3   am
     3     3    11    1
     4    11    12   ar
     5    12    13   ar
     6    13    14   ar
     7    14    15    1
     8    14    16   ar
     9    16    17    1
    10    16    18   ar
    11     2     4   am
    12     4     5    1
    13     5     6    1
    14     6     7    1
    15     7    19    1
    16    20    19    1
    17    20    21    1
    18    21    22    1
    19    22    23    1
    20    23    24    1
    21    24    26    1
    22    26    27    1
    23    27    28    1
    24    28    29   ar
    25    29    30   ar
    26    30    31   ar
    27    31    32   ar
    28    32    33   ar
    29    24    25    1
    30     7     8    1
    31     8     9    1
    32    18    11   ar
    33     9     4    1
    34    25    20    1
    35    33    28   ar
    36     3    10    1
@<TRIPOS>MOLECULE
*****
 33 36 0 0 0
SMALL
GASTEIGER

@<TRIPOS>ATOM
      1 O         140.0290  140.3273  156.9547 O.2     1  UNL1       -0.2522
      2 C         139.5196  139.4509  158.0603 C.2     1  UNL1        0.3078
      3 N         139.5963  137.9586  157.9303 N.am    1  UNL1       -0.2681
      4 N         138.9334  140.0670  159.2961 N.am    1  UNL1       -0.2611
      5 C         138.8567  141.5593  159.4261 C.3     1  UNL1        0.1123
      6 C         138.2706  142.1753  160.6618 C.3     1  UNL1        0.0940
      7 N         137.7611  141.2989  161.7674 N.3     1  UNL1       -0.2697
      8 C         137.8379  139.8066  161.6374 C.3     1  UNL1        0.0940
      9 C         138.4240  139.1906  160.4017 C.3     1  UNL1        0.1123
     10 H         139.2620  137.3834  158.6560 H       1  UNL1        0.1564
     11 C         140.1825  137.3425  156.6946 C.ar    1  UNL1        0.0525
     12 C         139.3318  137.1570  155.4732 C.ar    1  UNL1        0.0156
     13 C         139.9180  136.5409  154.2375 C.ar    1  UNL1        0.0135
     14 C         141.3548  136.1104  154.2233 C.ar    1  UNL1        0.0683
     15 CL        141.9410  135.4944  152.9876 Cl      1  UNL1       -0.0814
     16 C         142.2055  136.2960  155.4447 C.ar    1  UNL1        0.0694
     17 CL        143.6423  135.8655  155.4305 Cl      1  UNL1       -0.0813
     18 C         141.6193  136.9120  156.6804 C.ar    1  UNL1        0.0270
     19 C         137.1750  141.9150  163.0032 C.3     1  UNL1        0.0735
     20 C         138.0775  142.4649  164.0675 C.3     1  UNL1        0.0320
     21 C         138.0491  143.9291  164.3921 C.3     1  UNL1        0.0042
     22 C         138.9516  144.4791  165.4565 C.3     1  UNL1        0.0174
     23 C         139.8827  143.5648  166.1963 C.3     1  UNL1        0.0721
     24 N         139.9111  142.1006  165.8718 N.3     1  UNL1       -0.2723
     25 C         139.0085  141.5507  164.8073 C.3     1  UNL1        0.0734
     26 C         140.8421  141.1864  166.6116 C.3     1  UNL1        0.0768
     27 C         142.2601  141.6049  166.8650 C.3     1  UNL1        0.0437
     28 C         143.2956  141.4337  165.7934 C.ar    1  UNL1       -0.0208
     29 C         144.0461  142.6259  165.2783 C.ar    1  UNL1       -0.0042
     30 C         145.0816  142.4548  164.2066 C.ar    1  UNL1       -0.0003
     31 C         145.3666  141.0913  163.6501 C.ar    1  UNL1       -0.0000
     32 C         144.6161  139.8990  164.1652 C.ar    1  UNL1       -0.0003
     33 C         143.5806  140.0702  165.2368 C.ar    1  UNL1       -0.0042
@<TRIPOS>BOND
     1     1     2    2
     2     2     3   am
     3     3    11    1
     4    11    12   ar
     5    12    13   ar
     6    13    14   ar
     7    14    15    1
     8    14    16   ar
     9    16    17    1
    10    16    18   ar
    11     2     4   am
    12     4     5    1
    13     5     6    1
    14     6     7    1
    15     7    19    1
    16    20    19    1
    17    20    21    1
    18    21    22    1
    19    22    23    1
    20    23    24    1
    21    24    26    1
    22    26    27    1
    23    27    28    1
    24    28    29   ar
    25    29    30   ar
    26    30    31   ar
    27    31    32   ar
    28    32    33   ar
    29    24    25    1
    30     7     8    1
    31     8     9    1
    32    18    11   ar
    33     9     4    1
    34    25    20    1
    35    33    28   ar
    36     3    10    1
@<TRIPOS>MOLECULE
*****
 33 36 0 0 0
SMALL
GASTEIGER

@<TRIPOS>ATOM
      1 O         142.0629  140.4306  157.3069 O.2     1  UNL1       -0.2522
      2 C         143.0056  139.8356  158.3105 C.2     1  UNL1        0.3078
      3 N         144.4862  139.9007  158.0793 N.am    1  UNL1       -0.2681
      4 N         142.4677  139.1756  159.5455 N.am    1  UNL1       -0.2611
      5 C         140.9871  139.1106  159.7768 C.3     1  UNL1        0.1123
      6 C         140.4492  138.4506  161.0117 C.3     1  UNL1        0.0940
      7 N         141.3920  137.8556  162.0153 N.3     1  UNL1       -0.2697
      8 C         142.8726  137.9206  161.7840 C.3     1  UNL1        0.0940
      9 C         143.4104  138.5806  160.5491 C.3     1  UNL1        0.1123
     10 H         145.1050  139.5101  158.7380 H       1  UNL1        0.1564
     11 C         145.0242  140.5607  156.8443 C.ar    1  UNL1        0.0525
     12 C         145.6287  141.9308  156.9289 C.ar    1  UNL1        0.0156
     13 C         146.1666  142.5908  155.6940 C.ar    1  UNL1        0.0135
     14 C         146.1000  141.8806  154.3745 C.ar    1  UNL1        0.0683
     15 CL        146.6379  142.5407  153.1395 Cl      1  UNL1       -0.0814
     16 C         145.4955  140.5105  154.2898 C.ar    1  UNL1        0.0694
     17 CL        145.4289  139.8003  152.9703 Cl      1  UNL1       -0.0813
     18 C         144.9576  139.8505  155.5248 C.ar    1  UNL1        0.0270
     19 C         140.8540  137.1955  163.2503 C.3     1  UNL1        0.0735
     20 C         140.3947  138.0314  164.4079 C.3     1  UNL1        0.0320
     21 C         139.0132  137.8494  164.9631 C.3     1  UNL1        0.0042
     22 C         138.5539  138.6853  166.1207 C.3     1  UNL1        0.0174
     23 C         139.4762  139.7033  166.7234 C.3     1  UNL1        0.0721
     24 N         140.8578  139.8854  166.1683 N.3     1  UNL1       -0.2723
     25 C         141.3170  139.0494  165.0105 C.3     1  UNL1        0.0734
     26 C         141.7800  140.9033  166.7708 C.3     1  UNL1        0.0768
     27 C         142.9078  141.4676  165.9585 C.3     1  UNL1        0.0437
     28 C         142.7271  142.7617  165.2218 C.ar    1  UNL1       -0.0208
     29 C         141.3504  143.2284  164.8523 C.ar    1  UNL1       -0.0042
     30 C         141.1697  144.5226  164.1156 C.ar    1  UNL1       -0.0003
     31 C         142.3658  145.3499  163.7484 C.ar    1  UNL1       -0.0000
     32 C         143.7427  144.8831  164.1180 C.ar    1  UNL1       -0.0003
     33 C         143.9233  143.5890  164.8547 C.ar    1  UNL1       -0.0042
@<TRIPOS>BOND
     1     1     2    2
     2     2     3   am
     3     3    11    1
     4    11    12   ar
     5    12    13   ar
     6    13    14   ar
     7    14    15    1
     8    14    16   ar
     9    16    17    1
    10    16    18   ar
    11     2     4   am
    12     4     5    1
    13     5     6    1
    14     6     7    1
    15     7    19    1
    16    20    19    1
    17    20    21    1
    18    21    22    1
    19    22    23    1
    20    23    24    1
    21    24    26    1
    22    26    27    1
    23    27    28    1
    24    28    29   ar
    25    29    30   ar
    26    30    31   ar
    27    31    32   ar
    28    32    33   ar
    29    24    25    1
    30     7     8    1
    31     8     9    1
    32    18    11   ar
    33     9     4    1
    34    25    20    1
    35    33    28   ar
    36     3    10    1
@<TRIPOS>MOLECULE
*****
 33 36 0 0 0
SMALL
GASTEIGER

@<TRIPOS>ATOM
      1 O         140.7089  137.6568  157.3841 O.2     1  UNL1       -0.2522
      2 C         142.0802  138.1725  157.7059 C.2     1  UNL1        0.3078
      3 N         143.2923  137.4202  157.2424 N.am    1  UNL1       -0.2681
      4 N         142.2394  139.4405  158.4913 N.am    1  UNL1       -0.2611
      5 C         141.0273  140.1928  158.9548 C.3     1  UNL1        0.1123
      6 C         141.1866  141.4608  159.7402 C.3     1  UNL1        0.0940
      7 N         142.5579  141.9765  160.0620 N.3     1  UNL1       -0.2697
      8 C         143.7700  141.2242  159.5985 C.3     1  UNL1        0.0940
      9 C         143.6107  139.9562  158.8132 C.3     1  UNL1        0.1123
     10 H         144.1923  137.7587  157.4536 H       1  UNL1        0.1564
     11 C         143.1331  136.1522  156.4570 C.ar    1  UNL1        0.0525
     12 C         142.8444  136.2121  154.9863 C.ar    1  UNL1        0.0156
     13 C         142.6852  134.9441  154.2009 C.ar    1  UNL1        0.0135
     14 C         142.8148  133.6162  154.8863 C.ar    1  UNL1        0.0683
     15 CL        142.6556  132.3481  154.1009 Cl      1  UNL1       -0.0814
     16 C         143.1035  133.5562  156.3570 C.ar    1  UNL1        0.0694
     17 CL        143.2331  132.2282  157.0424 Cl      1  UNL1       -0.0813
     18 C         143.2627  134.8242  157.1423 C.ar    1  UNL1        0.0270
     19 C         142.7171  143.2445  160.8475 C.3     1  UNL1        0.0735
     20 C         142.9812  143.1848  162.3228 C.3     1  UNL1        0.0320
     21 C         143.8542  144.2181  162.9709 C.3     1  UNL1        0.0042
     22 C         144.1183  144.1583  164.4462 C.3     1  UNL1        0.0174
     23 C         143.5093  143.0653  165.2735 C.3     1  UNL1        0.0721
     24 N         142.6362  142.0320  164.6254 N.3     1  UNL1       -0.2723
     25 C         142.3722  142.0917  163.1500 C.3     1  UNL1        0.0734
     26 C         142.0273  140.9389  165.4527 C.3     1  UNL1        0.0768
     27 C         140.7117  141.1614  166.1381 C.3     1  UNL1        0.0437
     28 C         139.7365  142.1576  165.5844 C.ar    1  UNL1       -0.0208
     29 C         139.8310  143.6006  165.9826 C.ar    1  UNL1       -0.0042
     30 C         138.8558  144.5969  165.4289 C.ar    1  UNL1       -0.0003
     31 C         137.7861  144.1500  164.4770 C.ar    1  UNL1       -0.0000
     32 C         137.6916  142.7068  164.0789 C.ar    1  UNL1       -0.0003
     33 C         138.6668  141.7107  164.6326 C.ar    1  UNL1       -0.0042
@<TRIPOS>BOND
     1     1     2    2
     2     2     3   am
     3     3    11    1
     4    11    12   ar
     5    12    13   ar
     6    13    14   ar
     7    14    15    1
     8    14    16   ar
     9    16    17    1
    10    16    18   ar
    11     2     4   am
    12     4     5    1
    13     5     6    1
    14     6     7    1
    15     7    19    1
    16    20    19    1
    17    20    21    1
    18    21    22    1
    19    22    23    1
    20    23    24    1
    21    24    26    1
    22    26    27    1
    23    27    28    1
    24    28    29   ar
    25    29    30   ar
    26    30    31   ar
    27    31    32   ar
    28    32    33   ar
    29    24    25    1
    30     7     8    1
    31     8     9    1
    32    18    11   ar
    33     9     4    1
    34    25    20    1
    35    33    28   ar
    36     3    10    1
@<TRIPOS>MOLECULE
*****
 33 36 0 0 0
SMALL
GASTEIGER

@<TRIPOS>ATOM
      1 O         144.1294  140.4562  159.8539 O.2     1  UNL1       -0.2522
      2 C         143.5293  141.8213  160.0165 C.2     1  UNL1        0.3078
      3 N         143.6348  142.8241  158.9060 N.am    1  UNL1       -0.2681
      4 N         142.8238  142.1836  161.2897 N.am    1  UNL1       -0.2611
      5 C         142.7183  141.1808  162.4002 C.3     1  UNL1        0.1123
      6 C         142.0127  141.5432  163.6733 C.3     1  UNL1        0.0940
      7 N         141.4127  142.9083  163.8359 N.3     1  UNL1       -0.2697
      8 C         141.5182  143.9110  162.7254 C.3     1  UNL1        0.0940
      9 C         142.2237  143.5487  161.4523 C.3     1  UNL1        0.1123
     10 H         143.2410  143.7200  159.0127 H       1  UNL1        0.1564
     11 C         144.3404  142.4617  157.6327 C.ar    1  UNL1        0.0525
     12 C         143.5491  142.0350  156.4321 C.ar    1  UNL1        0.0156
     13 C         144.2546  141.6727  155.1589 C.ar    1  UNL1        0.0135
     14 C         145.7515  141.7372  155.0865 C.ar    1  UNL1        0.0683
     15 CL        146.4571  141.3749  153.8133 Cl      1  UNL1       -0.0814
     16 C         146.5428  142.1639  156.2872 C.ar    1  UNL1        0.0694
     17 CL        148.0397  142.2284  156.2147 Cl      1  UNL1       -0.0813
     18 C         145.8372  142.5262  157.5603 C.ar    1  UNL1        0.0270
     19 C         140.7071  143.2706  165.1091 C.3     1  UNL1        0.0735
     20 C         140.3561  142.2026  166.1021 C.3     1  UNL1        0.0320
     21 C         140.9876  142.2067  167.4627 C.3     1  UNL1        0.0042
     22 C         140.6366  141.1387  168.4557 C.3     1  UNL1        0.0174
     23 C         139.6540  140.0665  168.0882 C.3     1  UNL1        0.0721
     24 N         139.0225  140.0624  166.7276 N.3     1  UNL1       -0.2723
     25 C         139.3735  141.1305  165.7346 C.3     1  UNL1        0.0734
     26 C         138.0399  138.9903  166.3600 C.3     1  UNL1        0.0768
     27 C         138.5241  137.7010  165.7655 C.3     1  UNL1        0.0437
     28 C         139.3897  137.7183  164.5407 C.ar    1  UNL1       -0.0208
     29 C         140.8729  137.5343  164.6679 C.ar    1  UNL1       -0.0042
     30 C         141.7387  137.5516  163.4430 C.ar    1  UNL1       -0.0003
     31 C         141.1212  137.7529  162.0909 C.ar    1  UNL1       -0.0000
     32 C         139.6379  137.9369  161.9637 C.ar    1  UNL1       -0.0003
     33 C         138.7722  137.9196  163.1886 C.ar    1  UNL1       -0.0042
@<TRIPOS>BOND
     1     1     2    2
     2     2     3   am
     3     3    11    1
     4    11    12   ar
     5    12    13   ar
     6    13    14   ar
     7    14    15    1
     8    14    16   ar
     9    16    17    1
    10    16    18   ar
    11     2     4   am
    12     4     5    1
    13     5     6    1
    14     6     7    1
    15     7    19    1
    16    20    19    1
    17    20    21    1
    18    21    22    1
    19    22    23    1
    20    23    24    1
    21    24    26    1
    22    26    27    1
    23    27    28    1
    24    28    29   ar
    25    29    30   ar
    26    30    31   ar
    27    31    32   ar
    28    32    33   ar
    29    24    25    1
    30     7     8    1
    31     8     9    1
    32    18    11   ar
    33     9     4    1
    34    25    20    1
    35    33    28   ar
    36     3    10    1
@<TRIPOS>MOLECULE
*****
 33 36 0 0 0
SMALL
GASTEIGER

@<TRIPOS>ATOM
      1 O         144.3626  137.1197  156.0573 O.2     1  UNL1       -0.2522
      2 C         142.9813  137.1305  156.6422 C.2     1  UNL1        0.3078
      3 N         142.2507  135.8394  156.8640 N.am    1  UNL1       -0.2681
      4 N         142.3307  138.4325  157.0051 N.am    1  UNL1       -0.2611
      5 C         143.0613  139.7235  156.7833 C.3     1  UNL1        0.1123
      6 C         142.4107  141.0254  157.1463 C.3     1  UNL1        0.0940
      7 N         141.0295  141.0362  157.7311 N.3     1  UNL1       -0.2697
      8 C         140.2988  139.7451  157.9530 C.3     1  UNL1        0.0940
      9 C         140.9494  138.4433  157.5900 C.3     1  UNL1        0.1123
     10 H         141.3441  135.8465  157.2479 H       1  UNL1        0.1564
     11 C         142.9013  134.5375  156.5011 C.ar    1  UNL1        0.0525
     12 C         142.5847  133.8806  155.1903 C.ar    1  UNL1        0.0156
     13 C         143.2353  132.5787  154.8274 C.ar    1  UNL1        0.0135
     14 C         144.2025  131.9337  155.7752 C.ar    1  UNL1        0.0683
     15 CL        144.8531  130.6317  155.4122 Cl      1  UNL1       -0.0814
     16 C         144.5191  132.5906  157.0860 C.ar    1  UNL1        0.0694
     17 CL        145.4863  131.9456  158.0339 Cl      1  UNL1       -0.0813
     18 C         143.8685  133.8925  157.4489 C.ar    1  UNL1        0.0270
     19 C         140.3788  142.3382  158.0941 C.3     1  UNL1        0.0735
     20 C         140.2526  142.7376  159.5343 C.3     1  UNL1        0.0320
     21 C         141.3566  143.5051  160.1993 C.3     1  UNL1        0.0042
     22 C         141.2304  143.9046  161.6396 C.3     1  UNL1        0.0174
     23 C         140.0001  143.5366  162.4150 C.3     1  UNL1        0.0721
     24 N         138.8961  142.7692  161.7500 N.3     1  UNL1       -0.2723
     25 C         139.0224  142.3697  160.3096 C.3     1  UNL1        0.0734
     26 C         137.6659  142.4012  162.5253 C.3     1  UNL1        0.0768
     27 C         137.7881  141.9113  163.9378 C.3     1  UNL1        0.0437
     28 C         138.1617  140.4837  164.2068 C.ar    1  UNL1       -0.0208
     29 C         138.2232  139.9777  165.6175 C.ar    1  UNL1       -0.0042
     30 C         138.5968  138.5501  165.8866 C.ar    1  UNL1       -0.0003
     31 C         138.9089  137.6285  164.7449 C.ar    1  UNL1       -0.0000
     32 C         138.8474  138.1347  163.3342 C.ar    1  UNL1       -0.0003
     33 C         138.4738  139.5622  163.0652 C.ar    1  UNL1       -0.0042
@<TRIPOS>BOND
     1     1     2    2
     2     2     3   am
     3     3    11    1
     4    11    12   ar
     5    12    13   ar
     6    13    14   ar
     7    14    15    1
     8    14    16   ar
     9    16    17    1
    10    16    18   ar
    11     2     4   am
    12     4     5    1
    13     5     6    1
    14     6     7    1
    15     7    19    1
    16    20    19    1
    17    20    21    1
    18    21    22    1
    19    22    23    1
    20    23    24    1
    21    24    26    1
    22    26    27    1
    23    27    28    1
    24    28    29   ar
    25    29    30   ar
    26    30    31   ar
    27    31    32   ar
    28    32    33   ar
    29    24    25    1
    30     7     8    1
    31     8     9    1
    32    18    11   ar
    33     9     4    1
    34    25    20    1
    35    33    28   ar
    36     3    10    1
@<TRIPOS>MOLECULE
*****
 33 36 0 0 0
SMALL
GASTEIGER

@<TRIPOS>ATOM
      1 O         140.5689  137.8904  157.8439 O.2     1  UNL1       -0.2522
      2 C         141.9311  138.4434  158.1415 C.2     1  UNL1        0.3078
      3 N         143.1476  137.8051  157.5394 N.am    1  UNL1       -0.2681
      4 N         142.0768  139.6347  159.0413 N.am    1  UNL1       -0.2611
      5 C         140.8602  140.2730  159.6434 C.3     1  UNL1        0.1123
      6 C         141.0059  141.4643  160.5432 C.3     1  UNL1        0.0940
      7 N         142.3682  142.0173  160.8408 N.3     1  UNL1       -0.2697
      8 C         143.5847  141.3790  160.2387 C.3     1  UNL1        0.0940
      9 C         143.4390  140.1877  159.3389 C.3     1  UNL1        0.1123
     10 H         144.0417  138.1680  157.7347 H       1  UNL1        0.1564
     11 C         143.0019  136.6137  156.6396 C.ar    1  UNL1        0.0525
     12 C         142.8519  136.8056  155.1595 C.ar    1  UNL1        0.0156
     13 C         142.7062  135.6143  154.2598 C.ar    1  UNL1        0.0135
     14 C         142.7106  134.2311  154.8401 C.ar    1  UNL1        0.0683
     15 CL        142.5650  133.0398  153.9403 Cl      1  UNL1       -0.0814
     16 C         142.8607  134.0393  156.3202 C.ar    1  UNL1        0.0694
     17 CL        142.8651  132.6561  156.9005 Cl      1  UNL1       -0.0813
     18 C         143.0064  135.2306  157.2199 C.ar    1  UNL1        0.0270
     19 C         142.5138  143.2086  161.7406 C.3     1  UNL1        0.0735
     20 C         142.8523  143.0174  163.1893 C.3     1  UNL1        0.0320
     21 C         144.2834  143.0579  163.6369 C.3     1  UNL1        0.0042
     22 C         144.6218  142.8666  165.0856 C.3     1  UNL1        0.0174
     23 C         143.5292  142.6349  166.0868 C.3     1  UNL1        0.0721
     24 N         142.0981  142.5944  165.6393 N.3     1  UNL1       -0.2723
     25 C         141.7596  142.7856  164.1905 C.3     1  UNL1        0.0734
     26 C         141.0054  142.3626  166.6404 C.3     1  UNL1        0.0768
     27 C         140.8866  141.0342  167.3270 C.3     1  UNL1        0.0437
     28 C         140.2240  139.8849  166.6272 C.ar    1  UNL1       -0.0208
     29 C         138.8301  139.4796  167.0052 C.ar    1  UNL1       -0.0042
     30 C         138.1674  138.3302  166.3054 C.ar    1  UNL1       -0.0003
     31 C         138.8985  137.5861  165.2276 C.ar    1  UNL1       -0.0000
     32 C         140.2925  137.9914  164.8496 C.ar    1  UNL1       -0.0003
     33 C         140.9551  139.1407  165.5494 C.ar    1  UNL1       -0.0042
@<TRIPOS>BOND
     1     1     2    2
     2     2     3   am
     3     3    11    1
     4    11    12   ar
     5    12    13   ar
     6    13    14   ar
     7    14    15    1
     8    14    16   ar
     9    16    17    1
    10    16    18   ar
    11     2     4   am
    12     4     5    1
    13     5     6    1
    14     6     7    1
    15     7    19    1
    16    20    19    1
    17    20    21    1
    18    21    22    1
    19    22    23    1
    20    23    24    1
    21    24    26    1
    22    26    27    1
    23    27    28    1
    24    28    29   ar
    25    29    30   ar
    26    30    31   ar
    27    31    32   ar
    28    32    33   ar
    29    24    25    1
    30     7     8    1
    31     8     9    1
    32    18    11   ar
    33     9     4    1
    34    25    20    1
    35    33    28   ar
    36     3    10    1
@<TRIPOS>MOLECULE
*****
 33 36 0 0 0
SMALL
GASTEIGER

@<TRIPOS>ATOM
      1 O         142.2600  146.1340  157.9313 O.2     1  UNL1       -0.2522
      2 C         141.3105  144.9896  157.7343 C.2     1  UNL1        0.3078
      3 N         140.1644  145.1225  156.7757 N.am    1  UNL1       -0.2681
      4 N         141.5070  143.7124  158.4960 N.am    1  UNL1       -0.2611
      5 C         142.6530  143.5796  159.4545 C.3     1  UNL1        0.1123
      6 C         142.8495  142.3024  160.2162 C.3     1  UNL1        0.0940
      7 N         141.9000  141.1580  160.0192 N.3     1  UNL1       -0.2697
      8 C         140.7540  141.2908  159.0606 C.3     1  UNL1        0.0940
      9 C         140.5575  142.5680  158.2990 C.3     1  UNL1        0.1123
     10 H         139.5412  144.3714  156.6464 H       1  UNL1        0.1564
     11 C         139.9679  146.3997  156.0140 C.ar    1  UNL1        0.0525
     12 C         140.5843  146.5660  154.6567 C.ar    1  UNL1        0.0156
     13 C         140.3878  147.8432  153.8952 C.ar    1  UNL1        0.0135
     14 C         139.5747  148.9541  154.4908 C.ar    1  UNL1        0.0683
     15 CL        139.3782  150.2314  153.7292 Cl      1  UNL1       -0.0814
     16 C         138.9583  148.7878  155.8481 C.ar    1  UNL1        0.0694
     17 CL        138.1453  149.8988  156.4438 Cl      1  UNL1       -0.0813
     18 C         139.1549  147.5106  156.6097 C.ar    1  UNL1        0.0270
     19 C         142.0966  139.8807  160.7809 C.3     1  UNL1        0.0735
     20 C         142.5884  139.9203  162.1973 C.3     1  UNL1        0.0320
     21 C         144.0593  139.8493  162.4828 C.3     1  UNL1        0.0042
     22 C         144.5511  139.8889  163.8993 C.3     1  UNL1        0.0174
     23 C         143.5721  139.9994  165.0304 C.3     1  UNL1        0.0721
     24 N         142.1012  140.0704  164.7449 N.3     1  UNL1       -0.2723
     25 C         141.6094  140.0308  163.3283 C.3     1  UNL1        0.0734
     26 C         141.1222  140.1810  165.8759 C.3     1  UNL1        0.0768
     27 C         140.7178  141.5315  166.3886 C.3     1  UNL1        0.0437
     28 C         139.7375  142.3639  165.6166 C.ar    1  UNL1       -0.0208
     29 C         138.6139  141.7036  164.8740 C.ar    1  UNL1       -0.0042
     30 C         137.6336  142.5361  164.1020 C.ar    1  UNL1       -0.0003
     31 C         137.7768  144.0289  164.0727 C.ar    1  UNL1       -0.0000
     32 C         138.9004  144.6893  164.8154 C.ar    1  UNL1       -0.0003
     33 C         139.8807  143.8568  165.5873 C.ar    1  UNL1       -0.0042
@<TRIPOS>BOND
     1     1     2    2
     2     2     3   am
     3     3    11    1
     4    11    12   ar
     5    12    13   ar
     6    13    14   ar
     7    14    15    1
     8    14    16   ar
     9    16    17    1
    10    16    18   ar
    11     2     4   am
    12     4     5    1
    13     5     6    1
    14     6     7    1
    15     7    19    1
    16    20    19    1
    17    20    21    1
    18    21    22    1
    19    22    23    1
    20    23    24    1
    21    24    26    1
    22    26    27    1
    23    27    28    1
    24    28    29   ar
    25    29    30   ar
    26    30    31   ar
    27    31    32   ar
    28    32    33   ar
    29    24    25    1
    30     7     8    1
    31     8     9    1
    32    18    11   ar
    33     9     4    1
    34    25    20    1
    35    33    28   ar
    36     3    10    1
