@<TRIPOS>MOLECULE
*****
 35 38 0 0 0
SMALL
GASTEIGER

@<TRIPOS>ATOM
      1 N         143.4600  138.7328  165.2072 N.pl3   1  UNL1       -0.3059
      2 H         144.3535  138.3544  165.0410 H       1  UNL1        0.1495
      3 N         143.1080  140.9721  166.6238 N.ar    1  UNL1       -0.2998
      4 C         143.1871  139.4813  166.4781 C.ar    1  UNL1        0.1978
      5 N         142.9454  138.8704  167.8266 N.ar    1  UNL1       -0.2138
      6 C         142.7169  139.9836  168.8057 C.ar    1  UNL1        0.0999
      7 C         142.4304  139.9824  170.2780 C.ar    1  UNL1        0.0207
      8 C         142.2443  141.2800  171.0069 C.ar    1  UNL1        0.0016
      9 C         142.3448  142.5790  170.2635 C.ar    1  UNL1        0.0016
     10 C         142.6313  142.5803  168.7912 C.ar    1  UNL1        0.0188
     11 C         142.8174  141.2826  168.0622 C.ar    1  UNL1        0.0798
     12 C         143.2878  141.9762  165.5240 C.3     1  UNL1        0.1087
     13 C         142.1640  142.2531  164.5700 C.3     1  UNL1        0.0246
     14 C         141.0725  143.2078  164.9536 C.3     1  UNL1        0.0020
     15 C         140.0383  142.7993  165.9604 C.3     1  UNL1        0.0001
     16 C         139.5613  141.3781  166.0112 C.3     1  UNL1        0.0000
     17 C         139.5056  140.6520  167.3226 C.3     1  UNL1        0.0000
     18 C         137.8222  138.7756  166.6936 C.3     1  UNL1        0.0000
     19 C         139.0909  139.2111  167.3650 C.3     1  UNL1        0.0000
     20 C         142.3715  138.5609  164.1896 C.3     1  UNL1        0.0745
     21 C         142.6208  138.9248  162.7559 C.3     1  UNL1        0.0369
     22 C         141.5323  138.7529  161.7382 C.3     1  UNL1        0.0738
     23 N         140.1945  138.2170  162.1542 N.3     1  UNL1       -0.2723
     24 C         139.9452  137.8530  163.5879 C.3     1  UNL1        0.0738
     25 C         141.0337  138.0250  164.6056 C.3     1  UNL1        0.0369
     26 C         139.1060  138.0451  161.1365 C.3     1  UNL1        0.0768
     27 C         137.8418  138.8447  161.2481 C.3     1  UNL1        0.0437
     28 C         137.9056  140.3058  161.5815 C.ar    1  UNL1       -0.0206
     29 C         137.4182  140.7930  162.9139 C.ar    1  UNL1       -0.0011
     30 C         137.4819  142.2540  163.2473 C.ar    1  UNL1        0.0366
     31 C         138.0330  143.2279  162.2484 C.ar    1  UNL1        0.1387
     32 C         138.5204  142.7408  160.9161 C.ar    1  UNL1        0.0366
     33 C         138.4567  141.2797  160.5826 C.ar    1  UNL1       -0.0011
     34 O         138.0968  144.6890  162.5818 O.3     1  UNL1       -0.4714
     35 C         139.3448  145.4701  162.2946 C.3     1  UNL1        0.2525
@<TRIPOS>BOND
     1    18    19    1
     2    19    17    1
     3    17    16    1
     4    16    15    1
     5    15    14    1
     6    14    13    1
     7    13    12    1
     8    12     3    1
     9     3     4   ar
    10     4     1    1
    11     1    20    1
    12    20    21    1
    13    21    22    1
    14    22    23    1
    15    23    26    1
    16    26    27    1
    17    27    28    1
    18    28    29   ar
    19    29    30   ar
    20    30    31   ar
    21    31    34    1
    22    34    35    1
    23    31    32   ar
    24    32    33   ar
    25    23    24    1
    26    24    25    1
    27     4     5   ar
    28     5     6   ar
    29     6     7   ar
    30     7     8   ar
    31     8     9   ar
    32     9    10   ar
    33    10    11   ar
    34    11     3   ar
    35    25    20    1
    36    11     6   ar
    37    33    28   ar
    38     1     2    1
@<TRIPOS>MOLECULE
*****
 35 38 0 0 0
SMALL
GASTEIGER

@<TRIPOS>ATOM
      1 N         138.6512  139.0743  167.3900 N.pl3   1  UNL1       -0.3059
      2 H         138.0190  138.5563  167.9388 H       1  UNL1        0.1495
      3 N         141.1237  140.0586  167.6405 N.ar    1  UNL1       -0.2998
      4 C         139.6860  139.9363  168.0503 C.ar    1  UNL1        0.1978
      5 N         139.4648  140.8274  169.2365 N.ar    1  UNL1       -0.2138
      6 C         140.7658  141.5004  169.5597 C.ar    1  UNL1        0.0999
      7 C         141.1494  142.4845  170.6248 C.ar    1  UNL1        0.0207
      8 C         142.5582  142.9934  170.7035 C.ar    1  UNL1        0.0016
      9 C         143.5835  142.5182  169.7171 C.ar    1  UNL1        0.0016
     10 C         143.1999  141.5341  168.6520 C.ar    1  UNL1        0.0188
     11 C         141.7911  141.0252  168.5733 C.ar    1  UNL1        0.0798
     12 C         141.7791  139.3403  166.4983 C.3     1  UNL1        0.1087
     13 C         141.8744  139.9986  165.1539 C.3     1  UNL1        0.0246
     14 C         142.3744  141.4085  165.0429 C.3     1  UNL1        0.0020
     15 C         141.4148  142.5557  165.1566 C.3     1  UNL1        0.0001
     16 C         140.7317  143.0864  163.9311 C.3     1  UNL1        0.0000
     17 C         141.4407  144.0636  163.0410 C.3     1  UNL1        0.0000
     18 C         143.6620  145.1860  163.7869 C.3     1  UNL1        0.0000
     19 C         142.1700  145.2302  163.6387 C.3     1  UNL1        0.0000
     20 C         138.5796  139.0015  165.8935 C.3     1  UNL1        0.0745
     21 C         138.8484  137.7032  165.1920 C.3     1  UNL1        0.0369
     22 C         138.7769  137.6304  163.6955 C.3     1  UNL1        0.0738
     23 N         138.4365  138.8560  162.9004 N.3     1  UNL1       -0.2723
     24 C         138.1678  140.1543  163.6018 C.3     1  UNL1        0.0738
     25 C         138.2393  140.2271  165.0984 C.3     1  UNL1        0.0369
     26 C         138.3650  138.7831  161.4038 C.3     1  UNL1        0.0768
     27 C         139.5848  138.4166  160.6116 C.3     1  UNL1        0.0437
     28 C         140.9311  138.9319  161.0261 C.ar    1  UNL1       -0.0206
     29 C         141.9953  137.9744  161.4743 C.ar    1  UNL1       -0.0011
     30 C         143.3416  138.4898  161.8888 C.ar    1  UNL1        0.0366
     31 C         143.6238  139.9626  161.8552 C.ar    1  UNL1        0.1387
     32 C         142.5597  140.9201  161.4071 C.ar    1  UNL1        0.0366
     33 C         141.2133  140.4048  160.9926 C.ar    1  UNL1       -0.0011
     34 O         144.9700  140.4779  162.2698 O.3     1  UNL1       -0.4714
     35 C         145.1626  141.9409  162.5396 C.3     1  UNL1        0.2525
@<TRIPOS>BOND
     1    18    19    1
     2    19    17    1
     3    17    16    1
     4    16    15    1
     5    15    14    1
     6    14    13    1
     7    13    12    1
     8    12     3    1
     9     3     4   ar
    10     4     1    1
    11     1    20    1
    12    20    21    1
    13    21    22    1
    14    22    23    1
    15    23    26    1
    16    26    27    1
    17    27    28    1
    18    28    29   ar
    19    29    30   ar
    20    30    31   ar
    21    31    34    1
    22    34    35    1
    23    31    32   ar
    24    32    33   ar
    25    23    24    1
    26    24    25    1
    27     4     5   ar
    28     5     6   ar
    29     6     7   ar
    30     7     8   ar
    31     8     9   ar
    32     9    10   ar
    33    10    11   ar
    34    11     3   ar
    35    25    20    1
    36    11     6   ar
    37    33    28   ar
    38     1     2    1
@<TRIPOS>MOLECULE
*****
 35 38 0 0 0
SMALL
GASTEIGER

@<TRIPOS>ATOM
      1 N         138.8297  139.0982  166.9394 N.pl3   1  UNL1       -0.3059
      2 H         138.3199  138.4159  167.4332 H       1  UNL1        0.1495
      3 N         141.2893  140.0183  167.4382 N.ar    1  UNL1       -0.2998
      4 C         139.8071  139.9750  167.6646 C.ar    1  UNL1        0.1978
      5 N         139.4740  140.9624  168.7435 N.ar    1  UNL1       -0.2138
      6 C         140.7503  141.6160  169.1839 C.ar    1  UNL1        0.0999
      7 C         141.0358  142.6670  170.2153 C.ar    1  UNL1        0.0207
      8 C         142.4432  143.1346  170.4400 C.ar    1  UNL1        0.0016
      9 C         143.5651  142.5511  169.6332 C.ar    1  UNL1        0.0016
     10 C         143.2796  141.5000  168.6019 C.ar    1  UNL1        0.0188
     11 C         141.8722  141.0325  168.3772 C.ar    1  UNL1        0.0798
     12 C         142.0543  139.1925  166.4469 C.3     1  UNL1        0.1087
     13 C         142.9179  139.8628  165.4199 C.3     1  UNL1        0.0246
     14 C         142.3303  140.2849  164.1059 C.3     1  UNL1        0.0020
     15 C         141.3310  141.4024  164.0555 C.3     1  UNL1        0.0001
     16 C         141.5183  142.6155  164.9176 C.3     1  UNL1        0.0000
     17 C         140.3427  143.2218  165.6249 C.3     1  UNL1        0.0000
     18 C         138.1006  144.2556  164.8160 C.3     1  UNL1        0.0000
     19 C         139.5872  144.3520  164.9910 C.3     1  UNL1        0.0000
     20 C         138.6290  139.2609  165.4619 C.3     1  UNL1        0.0745
     21 C         139.0808  138.1840  164.5205 C.3     1  UNL1        0.0369
     22 C         138.8801  138.3467  163.0429 C.3     1  UNL1        0.0738
     23 N         138.2276  139.5863  162.5067 N.3     1  UNL1       -0.2723
     24 C         137.7758  140.6633  163.4480 C.3     1  UNL1        0.0738
     25 C         137.9765  140.5006  164.9256 C.3     1  UNL1        0.0369
     26 C         138.0269  139.7490  161.0290 C.3     1  UNL1        0.0768
     27 C         138.2247  141.0909  160.3885 C.3     1  UNL1        0.0437
     28 C         139.4869  141.8621  160.6376 C.ar    1  UNL1       -0.0206
     29 C         140.8160  141.2550  160.2984 C.ar    1  UNL1       -0.0011
     30 C         142.0782  142.0262  160.5475 C.ar    1  UNL1        0.0366
     31 C         142.0114  143.4044  161.1356 C.ar    1  UNL1        0.1387
     32 C         140.6823  144.0115  161.4748 C.ar    1  UNL1        0.0366
     33 C         139.4200  143.2403  161.2257 C.ar    1  UNL1       -0.0011
     34 O         143.2736  144.1756  161.3846 O.3     1  UNL1       -0.4714
     35 C         144.3240  143.6197  162.3000 C.3     1  UNL1        0.2525
@<TRIPOS>BOND
     1    18    19    1
     2    19    17    1
     3    17    16    1
     4    16    15    1
     5    15    14    1
     6    14    13    1
     7    13    12    1
     8    12     3    1
     9     3     4   ar
    10     4     1    1
    11     1    20    1
    12    20    21    1
    13    21    22    1
    14    22    23    1
    15    23    26    1
    16    26    27    1
    17    27    28    1
    18    28    29   ar
    19    29    30   ar
    20    30    31   ar
    21    31    34    1
    22    34    35    1
    23    31    32   ar
    24    32    33   ar
    25    23    24    1
    26    24    25    1
    27     4     5   ar
    28     5     6   ar
    29     6     7   ar
    30     7     8   ar
    31     8     9   ar
    32     9    10   ar
    33    10    11   ar
    34    11     3   ar
    35    25    20    1
    36    11     6   ar
    37    33    28   ar
    38     1     2    1
@<TRIPOS>MOLECULE
*****
 35 38 0 0 0
SMALL
GASTEIGER

@<TRIPOS>ATOM
      1 N         137.0811  141.3606  163.4016 N.pl3   1  UNL1       -0.3059
      2 H         136.1168  141.4603  163.5734 H       1  UNL1        0.1495
      3 N         137.9222  140.2079  161.1413 N.ar    1  UNL1       -0.2998
      4 C         137.6000  141.3986  161.9947 C.ar    1  UNL1        0.1978
      5 N         137.8878  142.6341  161.1942 N.ar    1  UNL1       -0.2138
      6 C         138.3879  142.2068  159.8460 C.ar    1  UNL1        0.0999
      7 C         138.8267  142.9895  158.6440 C.ar    1  UNL1        0.0207
      8 C         139.2867  142.2726  157.4093 C.ar    1  UNL1        0.0016
      9 C         139.3079  140.7732  157.3767 C.ar    1  UNL1        0.0016
     10 C         138.8691  139.9905  158.5787 C.ar    1  UNL1        0.0188
     11 C         138.4091  140.7073  159.8134 C.ar    1  UNL1        0.0798
     12 C         137.7820  138.7700  161.5449 C.3     1  UNL1        0.1087
     13 C         138.9887  137.8799  161.5805 C.3     1  UNL1        0.0246
     14 C         139.6845  137.6112  162.8819 C.3     1  UNL1        0.0020
     15 C         141.1818  137.6601  162.9559 C.3     1  UNL1        0.0001
     16 C         141.9892  137.8393  161.7045 C.3     1  UNL1        0.0000
     17 C         142.5922  139.1753  161.3859 C.3     1  UNL1        0.0000
     18 C         141.3325  141.1760  162.4630 C.3     1  UNL1        0.0000
     19 C         141.7119  140.3820  161.2483 C.3     1  UNL1        0.0000
     20 C         138.0313  141.1708  164.5465 C.3     1  UNL1        0.0745
     21 C         138.1444  139.8317  165.2132 C.3     1  UNL1        0.0369
     22 C         139.0946  139.6419  166.3582 C.3     1  UNL1        0.0738
     23 N         139.9317  140.7910  166.8366 N.3     1  UNL1       -0.2723
     24 C         139.8186  142.1299  166.1700 C.3     1  UNL1        0.0738
     25 C         138.8683  142.3198  165.0250 C.3     1  UNL1        0.0369
     26 C         140.8819  140.6010  167.9817 C.3     1  UNL1        0.0768
     27 C         142.1806  139.8818  167.7672 C.3     1  UNL1        0.0437
     28 C         143.0009  140.1640  166.5435 C.ar    1  UNL1       -0.0206
     29 C         143.3041  141.5805  166.1540 C.ar    1  UNL1       -0.0011
     30 C         144.1244  141.8627  164.9304 C.ar    1  UNL1        0.0366
     31 C         144.6417  140.7284  164.0962 C.ar    1  UNL1        0.1387
     32 C         144.3386  139.3119  164.4856 C.ar    1  UNL1        0.0366
     33 C         143.5182  139.0297  165.7093 C.ar    1  UNL1       -0.0011
     34 O         145.4620  141.0106  162.8725 O.3     1  UNL1       -0.4714
     35 C         145.0240  142.0685  161.9034 C.3     1  UNL1        0.2525
@<TRIPOS>BOND
     1    18    19    1
     2    19    17    1
     3    17    16    1
     4    16    15    1
     5    15    14    1
     6    14    13    1
     7    13    12    1
     8    12     3    1
     9     3     4   ar
    10     4     1    1
    11     1    20    1
    12    20    21    1
    13    21    22    1
    14    22    23    1
    15    23    26    1
    16    26    27    1
    17    27    28    1
    18    28    29   ar
    19    29    30   ar
    20    30    31   ar
    21    31    34    1
    22    34    35    1
    23    31    32   ar
    24    32    33   ar
    25    23    24    1
    26    24    25    1
    27     4     5   ar
    28     5     6   ar
    29     6     7   ar
    30     7     8   ar
    31     8     9   ar
    32     9    10   ar
    33    10    11   ar
    34    11     3   ar
    35    25    20    1
    36    11     6   ar
    37    33    28   ar
    38     1     2    1
@<TRIPOS>MOLECULE
*****
 35 38 0 0 0
SMALL
GASTEIGER

@<TRIPOS>ATOM
      1 N         143.2792  138.2568  165.7868 N.pl3   1  UNL1       -0.3059
      2 H         144.0693  137.6700  165.8109 H       1  UNL1        0.1495
      3 N         142.7279  140.6700  166.7954 N.ar    1  UNL1       -0.2998
      4 C         143.0126  139.2026  166.9201 C.ar    1  UNL1        0.1978
      5 N         142.9841  138.8471  168.3771 N.ar    1  UNL1       -0.2138
      6 C         142.6816  140.0948  169.1528 C.ar    1  UNL1        0.0999
      7 C         142.5299  140.3506  170.6230 C.ar    1  UNL1        0.0207
      8 C         142.2199  141.7330  171.1157 C.ar    1  UNL1        0.0016
      9 C         142.0616  142.8596  170.1382 C.ar    1  UNL1        0.0016
     10 C         142.2133  142.6039  168.6680 C.ar    1  UNL1        0.0188
     11 C         142.5233  141.2214  168.1753 C.ar    1  UNL1        0.0798
     12 C         142.6596  141.4493  165.5155 C.3     1  UNL1        0.1087
     13 C         141.3280  141.7984  164.9200 C.3     1  UNL1        0.0246
     14 C         141.2227  142.1311  163.4612 C.3     1  UNL1        0.0020
     15 C         141.2021  143.5640  163.0183 C.3     1  UNL1        0.0001
     16 C         141.5997  144.6501  163.9735 C.3     1  UNL1        0.0000
     17 C         142.9657  145.2633  163.8854 C.3     1  UNL1        0.0000
     18 C         144.6635  144.0756  165.4528 C.3     1  UNL1        0.0000
     19 C         144.1847  144.4092  164.0710 C.3     1  UNL1        0.0000
     20 C         142.3419  138.2050  164.6169 C.3     1  UNL1        0.0745
     21 C         142.8105  138.6420  163.2605 C.3     1  UNL1        0.0369
     22 C         141.8732  138.5902  162.0906 C.3     1  UNL1        0.0738
     23 N         140.4674  138.1015  162.2769 N.3     1  UNL1       -0.2723
     24 C         139.9988  137.6645  163.6331 C.3     1  UNL1        0.0738
     25 C         140.9361  137.7162  164.8032 C.3     1  UNL1        0.0369
     26 C         139.5301  138.0497  161.1069 C.3     1  UNL1        0.0768
     27 C         138.1723  138.6795  161.2052 C.3     1  UNL1        0.0437
     28 C         138.0269  140.0656  161.7597 C.ar    1  UNL1       -0.0206
     29 C         138.1746  141.2541  160.8564 C.ar    1  UNL1       -0.0011
     30 C         138.0292  142.6402  161.4109 C.ar    1  UNL1        0.0366
     31 C         137.7360  142.8379  162.8686 C.ar    1  UNL1        0.1387
     32 C         137.5882  141.6495  163.7719 C.ar    1  UNL1        0.0366
     33 C         137.7337  140.2633  163.2174 C.ar    1  UNL1       -0.0011
     34 O         137.5906  144.2240  163.4231 O.3     1  UNL1       -0.4714
     35 C         138.0078  144.5149  164.8343 C.3     1  UNL1        0.2525
@<TRIPOS>BOND
     1    18    19    1
     2    19    17    1
     3    17    16    1
     4    16    15    1
     5    15    14    1
     6    14    13    1
     7    13    12    1
     8    12     3    1
     9     3     4   ar
    10     4     1    1
    11     1    20    1
    12    20    21    1
    13    21    22    1
    14    22    23    1
    15    23    26    1
    16    26    27    1
    17    27    28    1
    18    28    29   ar
    19    29    30   ar
    20    30    31   ar
    21    31    34    1
    22    34    35    1
    23    31    32   ar
    24    32    33   ar
    25    23    24    1
    26    24    25    1
    27     4     5   ar
    28     5     6   ar
    29     6     7   ar
    30     7     8   ar
    31     8     9   ar
    32     9    10   ar
    33    10    11   ar
    34    11     3   ar
    35    25    20    1
    36    11     6   ar
    37    33    28   ar
    38     1     2    1
@<TRIPOS>MOLECULE
*****
 35 38 0 0 0
SMALL
GASTEIGER

@<TRIPOS>ATOM
      1 N         143.5107  139.0513  165.2095 N.pl3   1  UNL1       -0.3059
      2 H         144.4418  138.7911  165.0233 H       1  UNL1        0.1495
      3 N         142.8754  141.1234  166.7741 N.ar    1  UNL1       -0.2998
      4 C         143.1544  139.6702  166.5286 C.ar    1  UNL1        0.1978
      5 N         143.0145  138.9445  167.8339 N.ar    1  UNL1       -0.2138
      6 C         142.6491  139.9492  168.8860 C.ar    1  UNL1        0.0999
      7 C         142.3836  139.8118  170.3559 C.ar    1  UNL1        0.0207
      8 C         142.0320  141.0210  171.1708 C.ar    1  UNL1        0.0016
      9 C         141.9460  142.3677  170.5157 C.ar    1  UNL1        0.0016
     10 C         142.2116  142.5051  169.0459 C.ar    1  UNL1        0.0188
     11 C         142.5631  141.2959  168.2310 C.ar    1  UNL1        0.0798
     12 C         142.9037  142.2130  165.7435 C.3     1  UNL1        0.1087
     13 C         144.1973  142.8932  165.4065 C.3     1  UNL1        0.0246
     14 C         144.8851  142.5957  164.1071 C.3     1  UNL1        0.0020
     15 C         144.5264  143.3708  162.8740 C.3     1  UNL1        0.0001
     16 C         143.7129  144.6259  162.9873 C.3     1  UNL1        0.0000
     17 C         142.2744  144.6283  162.5620 C.3     1  UNL1        0.0000
     18 C         141.4861  142.9891  160.7068 C.3     1  UNL1        0.0000
     19 C         141.6095  143.3456  162.1586 C.3     1  UNL1        0.0000
     20 C         142.4485  138.8289  164.1741 C.3     1  UNL1        0.0745
     21 C         142.3868  139.7099  162.9615 C.3     1  UNL1        0.0369
     22 C         141.3246  139.4875  161.9261 C.3     1  UNL1        0.0738
     23 N         140.3239  138.3842  162.1031 N.3     1  UNL1       -0.2723
     24 C         140.3856  137.5032  163.3156 C.3     1  UNL1        0.0738
     25 C         141.4478  137.7256  164.3511 C.3     1  UNL1        0.0369
     26 C         139.2617  138.1618  161.0676 C.3     1  UNL1        0.0768
     27 C         137.9781  138.9352  161.1319 C.3     1  UNL1        0.0437
     28 C         137.9284  140.2469  161.8577 C.ar    1  UNL1       -0.0206
     29 C         137.7926  140.2730  163.3513 C.ar    1  UNL1       -0.0011
     30 C         137.7429  141.5847  164.0772 C.ar    1  UNL1        0.0366
     31 C         137.8290  142.8704  163.3094 C.ar    1  UNL1        0.1387
     32 C         137.9649  142.8445  161.8158 C.ar    1  UNL1        0.0366
     33 C         138.0145  141.5327  161.0899 C.ar    1  UNL1       -0.0011
     34 O         137.7793  144.1822  164.0352 O.3     1  UNL1       -0.4714
     35 C         139.0387  144.7828  164.5859 C.3     1  UNL1        0.2525
@<TRIPOS>BOND
     1    18    19    1
     2    19    17    1
     3    17    16    1
     4    16    15    1
     5    15    14    1
     6    14    13    1
     7    13    12    1
     8    12     3    1
     9     3     4   ar
    10     4     1    1
    11     1    20    1
    12    20    21    1
    13    21    22    1
    14    22    23    1
    15    23    26    1
    16    26    27    1
    17    27    28    1
    18    28    29   ar
    19    29    30   ar
    20    30    31   ar
    21    31    34    1
    22    34    35    1
    23    31    32   ar
    24    32    33   ar
    25    23    24    1
    26    24    25    1
    27     4     5   ar
    28     5     6   ar
    29     6     7   ar
    30     7     8   ar
    31     8     9   ar
    32     9    10   ar
    33    10    11   ar
    34    11     3   ar
    35    25    20    1
    36    11     6   ar
    37    33    28   ar
    38     1     2    1
@<TRIPOS>MOLECULE
*****
 35 38 0 0 0
SMALL
GASTEIGER

@<TRIPOS>ATOM
      1 N         143.4460  138.4745  165.4820 N.pl3   1  UNL1       -0.3059
      2 H         143.8422  137.5743  165.5253 H       1  UNL1        0.1495
      3 N         141.1425  139.3187  166.5433 N.ar    1  UNL1       -0.2998
      4 C         142.6015  138.9776  166.6150 C.ar    1  UNL1        0.1978
      5 N         143.0675  139.2278  168.0186 N.ar    1  UNL1       -0.2138
      6 C         141.8966  139.7236  168.8144 C.ar    1  UNL1        0.0999
      7 C         141.7601  140.1312  170.2515 C.ar    1  UNL1        0.0207
      8 C         140.4338  140.5949  170.7767 C.ar    1  UNL1        0.0016
      9 C         139.2441  140.6510  169.8649 C.ar    1  UNL1        0.0016
     10 C         139.3806  140.2435  168.4278 C.ar    1  UNL1        0.0188
     11 C         140.7069  139.7798  167.9026 C.ar    1  UNL1        0.0798
     12 C         140.2720  139.2167  165.3260 C.3     1  UNL1        0.1087
     13 C         139.2117  138.1586  165.2487 C.3     1  UNL1        0.0246
     14 C         138.7990  137.6061  163.9166 C.3     1  UNL1        0.0020
     15 C         139.7611  137.6257  162.7660 C.3     1  UNL1        0.0001
     16 C         139.4150  138.3719  161.5116 C.3     1  UNL1        0.0000
     17 C         139.1905  139.8542  161.5585 C.3     1  UNL1        0.0000
     18 C         137.4986  141.0365  163.1364 C.3     1  UNL1        0.0000
     19 C         137.8163  140.3969  161.8173 C.3     1  UNL1        0.0000
     20 C         143.6870  139.3431  164.2830 C.3     1  UNL1        0.0745
     21 C         142.9836  139.0498  162.9910 C.3     1  UNL1        0.0369
     22 C         143.2245  139.9184  161.7920 C.3     1  UNL1        0.0738
     23 N         144.1688  141.0801  161.8850 N.3     1  UNL1       -0.2723
     24 C         144.8722  141.3733  163.1769 C.3     1  UNL1        0.0738
     25 C         144.6313  140.5048  164.3760 C.3     1  UNL1        0.0369
     26 C         144.4097  141.9486  160.6859 C.3     1  UNL1        0.0768
     27 C         143.5298  143.1364  160.4313 C.3     1  UNL1        0.0437
     28 C         142.5616  143.5916  161.4826 C.ar    1  UNL1       -0.0206
     29 C         143.0052  144.5533  162.5449 C.ar    1  UNL1       -0.0011
     30 C         142.0370  145.0085  163.5962 C.ar    1  UNL1        0.0366
     31 C         140.6251  144.5021  163.5852 C.ar    1  UNL1        0.1387
     32 C         140.1815  143.5404  162.5230 C.ar    1  UNL1        0.0366
     33 C         141.1497  143.0852  161.4716 C.ar    1  UNL1       -0.0011
     34 O         139.6569  144.9573  164.6365 O.3     1  UNL1       -0.4714
     35 C         138.3188  144.2911  164.7627 C.3     1  UNL1        0.2525
@<TRIPOS>BOND
     1    18    19    1
     2    19    17    1
     3    17    16    1
     4    16    15    1
     5    15    14    1
     6    14    13    1
     7    13    12    1
     8    12     3    1
     9     3     4   ar
    10     4     1    1
    11     1    20    1
    12    20    21    1
    13    21    22    1
    14    22    23    1
    15    23    26    1
    16    26    27    1
    17    27    28    1
    18    28    29   ar
    19    29    30   ar
    20    30    31   ar
    21    31    34    1
    22    34    35    1
    23    31    32   ar
    24    32    33   ar
    25    23    24    1
    26    24    25    1
    27     4     5   ar
    28     5     6   ar
    29     6     7   ar
    30     7     8   ar
    31     8     9   ar
    32     9    10   ar
    33    10    11   ar
    34    11     3   ar
    35    25    20    1
    36    11     6   ar
    37    33    28   ar
    38     1     2    1
@<TRIPOS>MOLECULE
*****
 35 38 0 0 0
SMALL
GASTEIGER

@<TRIPOS>ATOM
      1 N         144.4855  141.6195  164.3152 N.pl3   1  UNL1       -0.3059
      2 H         145.3578  141.8818  164.6888 H       1  UNL1        0.1495
      3 N         144.0499  142.8550  161.9852 N.ar    1  UNL1       -0.2998
      4 C         144.2699  141.6358  162.8309 C.ar    1  UNL1        0.1978
      5 N         144.2363  140.4358  161.9315 N.ar    1  UNL1       -0.2138
      6 C         143.9956  140.9133  160.5301 C.ar    1  UNL1        0.0999
      7 C         143.8664  140.1799  159.2281 C.ar    1  UNL1        0.0207
      8 C         143.6221  140.9416  157.9592 C.ar    1  UNL1        0.0016
      9 C         143.5069  142.4368  157.9924 C.ar    1  UNL1        0.0016
     10 C         143.6361  143.1703  159.2944 C.ar    1  UNL1        0.0188
     11 C         143.8804  142.4085  160.5633 C.ar    1  UNL1        0.0798
     12 C         144.0070  144.2720  162.4754 C.3     1  UNL1        0.1087
     13 C         142.9880  144.6818  163.4969 C.3     1  UNL1        0.0246
     14 C         141.6643  145.2332  163.0567 C.3     1  UNL1        0.0020
     15 C         140.7938  144.4412  162.1267 C.3     1  UNL1        0.0001
     16 C         139.7376  143.5314  162.6805 C.3     1  UNL1        0.0000
     17 C         138.3920  144.0818  163.0498 C.3     1  UNL1        0.0000
     18 C         138.6064  144.9273  165.4971 C.3     1  UNL1        0.0000
     19 C         137.9364  144.0533  164.4787 C.3     1  UNL1        0.0000
     20 C         143.3722  141.2037  165.2303 C.3     1  UNL1        0.0745
     21 C         143.2522  139.7725  165.6634 C.3     1  UNL1        0.0369
     22 C         142.1389  139.3567  166.5785 C.3     1  UNL1        0.0738
     23 N         141.1454  140.3719  167.0606 N.3     1  UNL1       -0.2723
     24 C         141.2653  141.8030  166.6275 C.3     1  UNL1        0.0738
     25 C         142.3787  142.2189  165.7123 C.3     1  UNL1        0.0369
     26 C         140.0320  139.9560  167.9757 C.3     1  UNL1        0.0768
     27 C         138.7489  139.4294  167.4046 C.3     1  UNL1        0.0437
     28 C         138.6031  139.2567  165.9218 C.ar    1  UNL1       -0.0206
     29 C         138.9314  137.9391  165.2843 C.ar    1  UNL1       -0.0011
     30 C         138.7856  137.7664  163.8014 C.ar    1  UNL1        0.0366
     31 C         138.3114  138.9112  162.9561 C.ar    1  UNL1        0.1387
     32 C         137.9831  140.2287  163.5935 C.ar    1  UNL1        0.0366
     33 C         138.1289  140.4015  165.0764 C.ar    1  UNL1       -0.0011
     34 O         138.1656  138.7385  161.4732 O.3     1  UNL1       -0.4714
     35 C         139.3369  138.2873  160.6519 C.3     1  UNL1        0.2525
@<TRIPOS>BOND
     1    18    19    1
     2    19    17    1
     3    17    16    1
     4    16    15    1
     5    15    14    1
     6    14    13    1
     7    13    12    1
     8    12     3    1
     9     3     4   ar
    10     4     1    1
    11     1    20    1
    12    20    21    1
    13    21    22    1
    14    22    23    1
    15    23    26    1
    16    26    27    1
    17    27    28    1
    18    28    29   ar
    19    29    30   ar
    20    30    31   ar
    21    31    34    1
    22    34    35    1
    23    31    32   ar
    24    32    33   ar
    25    23    24    1
    26    24    25    1
    27     4     5   ar
    28     5     6   ar
    29     6     7   ar
    30     7     8   ar
    31     8     9   ar
    32     9    10   ar
    33    10    11   ar
    34    11     3   ar
    35    25    20    1
    36    11     6   ar
    37    33    28   ar
    38     1     2    1
@<TRIPOS>MOLECULE
*****
 35 38 0 0 0
SMALL
GASTEIGER

@<TRIPOS>ATOM
      1 N         141.6589  145.3302  161.4813 N.pl3   1  UNL1       -0.3059
      2 H         141.4864  146.2244  161.8554 H       1  UNL1        0.1495
      3 N         139.9953  143.7843  160.0715 N.ar    1  UNL1       -0.2998
      4 C         140.9823  144.9050  160.2119 C.ar    1  UNL1        0.1978
      5 N         141.1740  145.5259  158.8599 N.ar    1  UNL1       -0.2138
      6 C         140.3054  144.7889  157.8840 C.ar    1  UNL1        0.0999
      7 C         140.0837  144.9589  156.4103 C.ar    1  UNL1        0.0207
      8 C         139.1336  144.0525  155.6853 C.ar    1  UNL1        0.0016
      9 C         138.4051  142.9761  156.4341 C.ar    1  UNL1        0.0016
     10 C         138.6268  142.8061  157.9079 C.ar    1  UNL1        0.0188
     11 C         139.5769  143.7125  158.6328 C.ar    1  UNL1        0.0798
     12 C         139.5115  142.8920  161.1759 C.3     1  UNL1        0.1087
     13 C         138.2819  143.2590  161.9525 C.3     1  UNL1        0.0246
     14 C         138.3269  144.3882  162.9388 C.3     1  UNL1        0.0020
     15 C         137.9045  144.1602  164.3599 C.3     1  UNL1        0.0001
     16 C         138.8361  144.5052  165.4838 C.3     1  UNL1        0.0000
     17 C         139.9375  143.5599  165.8621 C.3     1  UNL1        0.0000
     18 C         140.6345  141.5709  164.3428 C.3     1  UNL1        0.0000
     19 C         139.8393  142.1087  165.4954 C.3     1  UNL1        0.0000
     20 C         142.5983  144.3931  162.1808 C.3     1  UNL1        0.0745
     21 C         142.8175  144.5161  163.6596 C.3     1  UNL1        0.0369
     22 C         143.7569  143.5789  164.3591 C.3     1  UNL1        0.0738
     23 N         144.4771  142.5187  163.5798 N.3     1  UNL1       -0.2723
     24 C         144.2578  142.3956  162.1010 C.3     1  UNL1        0.0738
     25 C         143.3184  143.3328  161.4015 C.3     1  UNL1        0.0369
     26 C         145.4165  141.5815  164.2793 C.3     1  UNL1        0.0768
     27 C         145.3153  140.1037  164.0434 C.3     1  UNL1        0.0437
     28 C         144.0065  139.3997  164.2464 C.ar    1  UNL1       -0.0206
     29 C         143.3007  138.7772  163.0783 C.ar    1  UNL1       -0.0011
     30 C         141.9918  138.0732  163.2812 C.ar    1  UNL1        0.0366
     31 C         141.3887  137.9916  164.6522 C.ar    1  UNL1        0.1387
     32 C         142.0945  138.6141  165.8202 C.ar    1  UNL1        0.0366
     33 C         143.4034  139.3181  165.6174 C.ar    1  UNL1       -0.0011
     34 O         140.0798  137.2876  164.8551 O.3     1  UNL1       -0.4714
     35 C         138.8789  138.0565  165.3204 C.3     1  UNL1        0.2525
@<TRIPOS>BOND
     1    18    19    1
     2    19    17    1
     3    17    16    1
     4    16    15    1
     5    15    14    1
     6    14    13    1
     7    13    12    1
     8    12     3    1
     9     3     4   ar
    10     4     1    1
    11     1    20    1
    12    20    21    1
    13    21    22    1
    14    22    23    1
    15    23    26    1
    16    26    27    1
    17    27    28    1
    18    28    29   ar
    19    29    30   ar
    20    30    31   ar
    21    31    34    1
    22    34    35    1
    23    31    32   ar
    24    32    33   ar
    25    23    24    1
    26    24    25    1
    27     4     5   ar
    28     5     6   ar
    29     6     7   ar
    30     7     8   ar
    31     8     9   ar
    32     9    10   ar
    33    10    11   ar
    34    11     3   ar
    35    25    20    1
    36    11     6   ar
    37    33    28   ar
    38     1     2    1
