@<TRIPOS>MOLECULE
*****
 30 33 0 0 0
SMALL
GASTEIGER

@<TRIPOS>ATOM
      1 C         138.3295  142.5211  163.2470 C.2     1  UNL1        0.2855
      2 O         137.0409  141.8571  162.8616 O.2     1  UNL1       -0.2665
      3 N         139.0845  142.0494  164.4542 N.am    1  UNL1       -0.2735
      4 C         138.5510  140.9136  165.2760 C.3     1  UNL1        0.0941
      5 C         139.3061  140.4419  166.4832 C.3     1  UNL1        0.0259
      6 C         140.5947  141.1059  166.8687 C.3     1  UNL1        0.0258
      7 C         141.1282  142.2417  166.0468 C.3     1  UNL1        0.0259
      8 C         140.3731  142.7135  164.8396 C.3     1  UNL1        0.0941
      9 C         141.8472  142.6390  159.8813 C.ar    1  UNL1        0.0861
     10 C         142.0547  144.0077  159.3037 C.ar    1  UNL1        0.0150
     11 C         141.2159  145.1571  159.7784 C.ar    1  UNL1        0.0400
     12 C         140.1697  144.9378  160.8307 C.ar    1  UNL1        0.1705
     13 N         139.1987  145.8715  161.4906 N.ar    1  UNL1       -0.1283
     14 N         138.3912  145.0798  162.4761 N.ar    1  UNL1       -0.1236
     15 C         138.8631  143.6569  162.4253 C.ar    1  UNL1        0.2244
     16 N         139.9622  143.5692  161.4083 N.ar    1  UNL1       -0.2681
     17 C         140.8010  142.4198  160.9336 C.ar    1  UNL1        0.0933
     18 N         143.5248  140.3402  158.9320 N.1     1  UNL1       -0.1908
     19 C         142.6860  141.4896  159.4066 C.1     1  UNL1        0.1019
     20 C         141.3497  140.6342  168.0759 C.ar    1  UNL1       -0.0163
     21 C         142.1083  139.3410  168.0280 C.ar    1  UNL1       -0.0042
     22 C         142.8633  138.8693  169.2352 C.ar    1  UNL1        0.0020
     23 C         142.8598  139.6907  170.4903 C.ar    1  UNL1        0.0296
     24 C         142.1012  140.9839  170.5382 C.ar    1  UNL1        0.1437
     25 F         142.0976  141.8053  171.7933 F       1  UNL1       -0.2042
     26 C         141.3461  141.4556  169.3310 C.ar    1  UNL1        0.0948
     27 C         140.5876  142.7488  169.3788 C.3     1  UNL1        0.4204
     28 F         139.8290  144.0420  169.4266 F       1  UNL1       -0.1658
     29 F         141.8431  143.4976  169.0424 F       1  UNL1       -0.1658
     30 F         139.3321  142.0000  169.7152 F       1  UNL1       -0.1658
@<TRIPOS>BOND
     1    18    19    3
     2    19     9    1
     3     9    10   ar
     4    10    11   ar
     5    11    12   ar
     6    12    13   ar
     7    13    14   ar
     8    14    15   ar
     9    15     1    1
    10     1     2    2
    11     1     3   am
    12     3     4    1
    13     4     5    1
    14     5     6    1
    15     6    20    1
    16    20    21   ar
    17    21    22   ar
    18    22    23   ar
    19    23    24   ar
    20    24    25    1
    21    24    26   ar
    22    26    27    1
    23    27    28    1
    24    27    29    1
    25    27    30    1
    26     6     7    1
    27     7     8    1
    28    15    16   ar
    29    16    17   ar
    30    17     9   ar
    31    16    12   ar
    32     8     3    1
    33    26    20   ar
@<TRIPOS>MOLECULE
*****
 30 33 0 0 0
SMALL
GASTEIGER

@<TRIPOS>ATOM
      1 C         142.8060  144.5231  163.0816 C.2     1  UNL1        0.2855
      2 O         144.0389  145.3578  162.8995 O.2     1  UNL1       -0.2665
      3 N         142.6750  143.6304  164.2799 N.am    1  UNL1       -0.2735
      4 C         143.7767  143.5724  165.2961 C.3     1  UNL1        0.0941
      5 C         143.6457  142.6798  166.4944 C.3     1  UNL1        0.0259
      6 C         142.4128  141.8450  166.6766 C.3     1  UNL1        0.0258
      7 C         141.3109  141.9030  165.6603 C.3     1  UNL1        0.0259
      8 C         141.4420  142.7957  164.4620 C.3     1  UNL1        0.0941
      9 C         141.9949  141.8286  159.1069 C.ar    1  UNL1        0.0861
     10 C         140.7548  142.2381  158.3691 C.ar    1  UNL1        0.0150
     11 C         139.9172  143.3720  158.8815 C.ar    1  UNL1        0.0400
     12 C         140.3197  144.0965  160.1318 C.ar    1  UNL1        0.1705
     13 N         139.6976  145.2435  160.8716 N.ar    1  UNL1       -0.1283
     14 N         140.5533  145.5429  162.0667 N.ar    1  UNL1       -0.1236
     15 C         141.7042  144.5810  162.0655 C.ar    1  UNL1        0.2244
     16 N         141.5598  143.6870  160.8695 N.ar    1  UNL1       -0.2681
     17 C         142.3974  142.5531  160.3571 C.ar    1  UNL1        0.0933
     18 N         143.6701  139.5607  158.0820 N.1     1  UNL1       -0.1908
     19 C         142.8325  140.6947  158.5945 C.1     1  UNL1        0.1019
     20 C         142.2817  140.9524  167.8749 C.ar    1  UNL1       -0.0163
     21 C         142.8649  139.5706  167.8482 C.ar    1  UNL1       -0.0042
     22 C         142.7338  138.6780  169.0465 C.ar    1  UNL1        0.0020
     23 C         142.0196  139.1671  170.2716 C.ar    1  UNL1        0.0296
     24 C         141.4364  140.5489  170.2983 C.ar    1  UNL1        0.1437
     25 F         140.7222  141.0380  171.5233 F       1  UNL1       -0.2042
     26 C         141.5675  141.4415  169.0999 C.ar    1  UNL1        0.0948
     27 C         140.9844  142.8233  169.1266 C.3     1  UNL1        0.4204
     28 F         140.4011  144.2050  169.1532 F       1  UNL1       -0.1658
     29 F         139.7035  142.2937  168.5527 F       1  UNL1       -0.1658
     30 F         142.2651  143.3528  169.7004 F       1  UNL1       -0.1658
@<TRIPOS>BOND
     1    18    19    3
     2    19     9    1
     3     9    10   ar
     4    10    11   ar
     5    11    12   ar
     6    12    13   ar
     7    13    14   ar
     8    14    15   ar
     9    15     1    1
    10     1     2    2
    11     1     3   am
    12     3     4    1
    13     4     5    1
    14     5     6    1
    15     6    20    1
    16    20    21   ar
    17    21    22   ar
    18    22    23   ar
    19    23    24   ar
    20    24    25    1
    21    24    26   ar
    22    26    27    1
    23    27    28    1
    24    27    29    1
    25    27    30    1
    26     6     7    1
    27     7     8    1
    28    15    16   ar
    29    16    17   ar
    30    17     9   ar
    31    16    12   ar
    32     8     3    1
    33    26    20   ar
@<TRIPOS>MOLECULE
*****
 30 33 0 0 0
SMALL
GASTEIGER

@<TRIPOS>ATOM
      1 C         138.3337  142.2516  162.4884 C.2     1  UNL1        0.2855
      2 O         137.3437  141.4262  161.7212 O.2     1  UNL1       -0.2665
      3 N         138.7803  141.8121  163.8513 N.am    1  UNL1       -0.2735
      4 C         138.2368  140.5473  164.4470 C.3     1  UNL1        0.0941
      5 C         138.6833  140.1078  165.8099 C.3     1  UNL1        0.0259
      6 C         139.6734  140.9332  166.5771 C.3     1  UNL1        0.0258
      7 C         140.2169  142.1980  165.9813 C.3     1  UNL1        0.0259
      8 C         139.7703  142.6375  164.6185 C.3     1  UNL1        0.0941
      9 C         141.6612  142.9569  159.0031 C.ar    1  UNL1        0.0861
     10 C         141.9046  144.4089  158.7160 C.ar    1  UNL1        0.0150
     11 C         141.1521  145.4603  159.4765 C.ar    1  UNL1        0.0400
     12 C         140.1561  145.0597  160.5241 C.ar    1  UNL1        0.1705
     13 N         139.2713  145.8657  161.4281 N.ar    1  UNL1       -0.1283
     14 N         138.4809  144.9119  162.2740 N.ar    1  UNL1       -0.1236
     15 C         138.8772  143.5164  161.8928 C.ar    1  UNL1        0.2244
     16 N         139.9126  143.6078  160.8112 N.ar    1  UNL1       -0.2681
     17 C         140.6652  142.5564  160.0507 C.ar    1  UNL1        0.0933
     18 N         143.1662  140.8542  157.4822 N.1     1  UNL1       -0.1908
     19 C         142.4137  141.9055  158.2427 C.1     1  UNL1        0.1019
     20 C         140.1199  140.4937  167.9400 C.ar    1  UNL1       -0.0163
     21 C         139.1567  140.5203  169.0896 C.ar    1  UNL1       -0.0042
     22 C         139.6033  140.0808  170.4524 C.ar    1  UNL1        0.0020
     23 C         141.0130  139.6147  170.6658 C.ar    1  UNL1        0.0296
     24 C         141.9762  139.5881  169.5161 C.ar    1  UNL1        0.1437
     25 F         143.3859  139.1221  169.7294 F       1  UNL1       -0.2042
     26 C         141.5297  140.0276  168.1532 C.ar    1  UNL1        0.0948
     27 C         142.4928  140.0010  167.0036 C.3     1  UNL1        0.4204
     28 F         143.4558  139.9744  165.8539 F       1  UNL1       -0.1658
     29 F         141.9264  138.6849  166.5596 F       1  UNL1       -0.1658
     30 F         143.0591  141.3171  167.4475 F       1  UNL1       -0.1658
@<TRIPOS>BOND
     1    18    19    3
     2    19     9    1
     3     9    10   ar
     4    10    11   ar
     5    11    12   ar
     6    12    13   ar
     7    13    14   ar
     8    14    15   ar
     9    15     1    1
    10     1     2    2
    11     1     3   am
    12     3     4    1
    13     4     5    1
    14     5     6    1
    15     6    20    1
    16    20    21   ar
    17    21    22   ar
    18    22    23   ar
    19    23    24   ar
    20    24    25    1
    21    24    26   ar
    22    26    27    1
    23    27    28    1
    24    27    29    1
    25    27    30    1
    26     6     7    1
    27     7     8    1
    28    15    16   ar
    29    16    17   ar
    30    17     9   ar
    31    16    12   ar
    32     8     3    1
    33    26    20   ar
@<TRIPOS>MOLECULE
*****
 30 33 0 0 0
SMALL
GASTEIGER

@<TRIPOS>ATOM
      1 C         142.5322  143.8182  162.3327 C.2     1  UNL1        0.2855
      2 O         143.9737  144.0020  161.9608 O.2     1  UNL1       -0.2665
      3 N         142.1630  143.4249  163.7323 N.am    1  UNL1       -0.2735
      4 C         143.2352  143.2153  164.7601 C.3     1  UNL1        0.0941
      5 C         142.8660  142.8220  166.1597 C.3     1  UNL1        0.0259
      6 C         141.4244  142.6382  166.5316 C.3     1  UNL1        0.0258
      7 C         140.3522  142.8477  165.5037 C.3     1  UNL1        0.0259
      8 C         140.7214  143.2410  164.1041 C.3     1  UNL1        0.0941
      9 C         139.5071  140.6556  160.1965 C.ar    1  UNL1        0.0861
     10 C         138.5815  141.3086  159.2133 C.ar    1  UNL1        0.0150
     11 C         138.6567  142.7886  158.9814 C.ar    1  UNL1        0.0400
     12 C         139.6574  143.6157  159.7326 C.ar    1  UNL1        0.1705
     13 N         139.9622  145.0842  159.7140 N.ar    1  UNL1       -0.1283
     14 N         141.0762  145.3389  160.6857 N.ar    1  UNL1       -0.1236
     15 C         141.4599  144.0277  161.3049 C.ar    1  UNL1        0.2244
     16 N         140.5830  142.9626  160.7159 N.ar    1  UNL1       -0.2681
     17 C         140.5079  141.4826  160.9478 C.ar    1  UNL1        0.0933
     18 N         139.3568  137.6955  160.6604 N.1     1  UNL1       -0.1908
     19 C         139.4320  139.1755  160.4285 C.1     1  UNL1        0.1019
     20 C         141.0552  142.2449  167.9312 C.ar    1  UNL1       -0.0163
     21 C         140.4932  143.2672  168.8740 C.ar    1  UNL1       -0.0042
     22 C         140.1240  142.8739  170.2736 C.ar    1  UNL1        0.0020
     23 C         140.3168  141.4582  170.7305 C.ar    1  UNL1        0.0296
     24 C         140.8788  140.4358  169.7876 C.ar    1  UNL1        0.1437
     25 F         141.0715  139.0201  170.2444 F       1  UNL1       -0.2042
     26 C         141.2480  140.8291  168.3879 C.ar    1  UNL1        0.0948
     27 C         141.8100  139.8068  167.4451 C.3     1  UNL1        0.4204
     28 F         142.3719  138.7845  166.5022 F       1  UNL1       -0.1658
     29 F         140.4399  139.5750  166.8799 F       1  UNL1       -0.1658
     30 F         143.1800  140.0386  168.0102 F       1  UNL1       -0.1658
@<TRIPOS>BOND
     1    18    19    3
     2    19     9    1
     3     9    10   ar
     4    10    11   ar
     5    11    12   ar
     6    12    13   ar
     7    13    14   ar
     8    14    15   ar
     9    15     1    1
    10     1     2    2
    11     1     3   am
    12     3     4    1
    13     4     5    1
    14     5     6    1
    15     6    20    1
    16    20    21   ar
    17    21    22   ar
    18    22    23   ar
    19    23    24   ar
    20    24    25    1
    21    24    26   ar
    22    26    27    1
    23    27    28    1
    24    27    29    1
    25    27    30    1
    26     6     7    1
    27     7     8    1
    28    15    16   ar
    29    16    17   ar
    30    17     9   ar
    31    16    12   ar
    32     8     3    1
    33    26    20   ar
@<TRIPOS>MOLECULE
*****
 30 33 0 0 0
SMALL
GASTEIGER

@<TRIPOS>ATOM
      1 C         139.9349  145.3873  160.8621 C.2     1  UNL1        0.2855
      2 O         139.1534  146.6672  160.8266 O.2     1  UNL1       -0.2665
      3 N         139.9297  144.5394  162.0995 N.am    1  UNL1       -0.2735
      4 C         139.1430  144.9713  163.3013 C.3     1  UNL1        0.0941
      5 C         139.1377  144.1234  164.5387 C.3     1  UNL1        0.0259
      6 C         139.9192  142.8435  164.5742 C.3     1  UNL1        0.0258
      7 C         140.7060  142.4117  163.3722 C.3     1  UNL1        0.0259
      8 C         140.7112  143.2596  162.1349 C.3     1  UNL1        0.0941
      9 C         138.8949  142.1596  157.3669 C.ar    1  UNL1        0.0861
     10 C         139.9841  142.0394  156.3426 C.ar    1  UNL1        0.0150
     11 C         141.2269  142.8698  156.4685 C.ar    1  UNL1        0.0400
     12 C         141.3806  143.8202  157.6187 C.ar    1  UNL1        0.1705
     13 N         142.4840  144.7609  158.0029 N.ar    1  UNL1       -0.1283
     14 N         142.0768  145.4625  159.2647 N.ar    1  UNL1       -0.1236
     15 C         140.7217  144.9554  159.6603 C.ar    1  UNL1        0.2244
     16 N         140.2915  143.9404  158.6430 N.ar    1  UNL1       -0.2681
     17 C         139.0486  143.1100  158.5171 C.ar    1  UNL1        0.0933
     18 N         136.4092  140.4989  157.1152 N.1     1  UNL1       -0.1908
     19 C         137.6520  141.3293  157.2411 C.1     1  UNL1        0.1019
     20 C         139.9140  141.9956  165.8115 C.ar    1  UNL1       -0.0163
     21 C         140.6410  142.4568  167.0398 C.ar    1  UNL1       -0.0042
     22 C         140.6358  141.6089  168.2771 C.ar    1  UNL1        0.0020
     23 C         139.9035  140.2998  168.2862 C.ar    1  UNL1        0.0296
     24 C         139.1764  139.8386  167.0578 C.ar    1  UNL1        0.1437
     25 F         138.4441  138.5296  167.0669 F       1  UNL1       -0.2042
     26 C         139.1817  140.6865  165.8205 C.ar    1  UNL1        0.0948
     27 C         138.4546  140.2255  164.5922 C.3     1  UNL1        0.4204
     28 F         137.7276  139.7644  163.3639 F       1  UNL1       -0.1658
     29 F         137.3752  141.2341  164.8525 F       1  UNL1       -0.1658
     30 F         139.5340  139.2169  164.3318 F       1  UNL1       -0.1658
@<TRIPOS>BOND
     1    18    19    3
     2    19     9    1
     3     9    10   ar
     4    10    11   ar
     5    11    12   ar
     6    12    13   ar
     7    13    14   ar
     8    14    15   ar
     9    15     1    1
    10     1     2    2
    11     1     3   am
    12     3     4    1
    13     4     5    1
    14     5     6    1
    15     6    20    1
    16    20    21   ar
    17    21    22   ar
    18    22    23   ar
    19    23    24   ar
    20    24    25    1
    21    24    26   ar
    22    26    27    1
    23    27    28    1
    24    27    29    1
    25    27    30    1
    26     6     7    1
    27     7     8    1
    28    15    16   ar
    29    16    17   ar
    30    17     9   ar
    31    16    12   ar
    32     8     3    1
    33    26    20   ar
@<TRIPOS>MOLECULE
*****
 30 33 0 0 0
SMALL
GASTEIGER

@<TRIPOS>ATOM
      1 C         139.1875  143.3521  161.7265 C.2     1  UNL1        0.2855
      2 O         137.7700  143.1372  161.2852 O.2     1  UNL1       -0.2665
      3 N         139.6005  142.9945  163.1234 N.am    1  UNL1       -0.2735
      4 C         138.5962  142.4221  164.0792 C.3     1  UNL1        0.0941
      5 C         139.0092  142.0645  165.4762 C.3     1  UNL1        0.0259
      6 C         140.4267  142.2793  165.9174 C.3     1  UNL1        0.0258
      7 C         141.4311  142.8517  164.9615 C.3     1  UNL1        0.0259
      8 C         141.0180  143.2093  163.5646 C.3     1  UNL1        0.0941
      9 C         142.5406  141.1728  158.9473 C.ar    1  UNL1        0.0861
     10 C         143.3423  142.1442  158.1327 C.ar    1  UNL1        0.0150
     11 C         143.0650  143.6149  158.2327 C.ar    1  UNL1        0.0400
     12 C         141.9861  144.1143  159.1473 C.ar    1  UNL1        0.1705
     13 N         141.4891  145.4962  159.4526 N.ar    1  UNL1       -0.1283
     14 N         140.3803  145.3789  160.4560 N.ar    1  UNL1       -0.1236
     15 C         140.1919  143.9245  160.7707 C.ar    1  UNL1        0.2244
     16 N         141.1844  143.1429  159.9618 N.ar    1  UNL1       -0.2681
     17 C         141.4617  141.6721  159.8619 C.ar    1  UNL1        0.0933
     18 N         143.0951  138.2312  158.7474 N.1     1  UNL1       -0.1908
     19 C         142.8178  139.7020  158.8474 C.1     1  UNL1        0.1019
     20 C         140.8397  141.9217  167.3144 C.ar    1  UNL1       -0.0163
     21 C         140.6416  142.9047  168.4299 C.ar    1  UNL1       -0.0042
     22 C         141.0547  142.5471  169.8268 C.ar    1  UNL1        0.0020
     23 C         141.6658  141.2065  170.1083 C.ar    1  UNL1        0.0296
     24 C         141.8639  140.2234  168.9927 C.ar    1  UNL1        0.1437
     25 F         142.4751  138.8828  169.2741 F       1  UNL1       -0.2042
     26 C         141.4509  140.5810  167.5957 C.ar    1  UNL1        0.0948
     27 C         141.6489  139.5980  166.4802 C.3     1  UNL1        0.4204
     28 F         141.8471  138.6151  165.3646 F       1  UNL1       -0.1658
     29 F         143.0688  140.0573  166.3277 F       1  UNL1       -0.1658
     30 F         140.2292  139.1388  166.6326 F       1  UNL1       -0.1658
@<TRIPOS>BOND
     1    18    19    3
     2    19     9    1
     3     9    10   ar
     4    10    11   ar
     5    11    12   ar
     6    12    13   ar
     7    13    14   ar
     8    14    15   ar
     9    15     1    1
    10     1     2    2
    11     1     3   am
    12     3     4    1
    13     4     5    1
    14     5     6    1
    15     6    20    1
    16    20    21   ar
    17    21    22   ar
    18    22    23   ar
    19    23    24   ar
    20    24    25    1
    21    24    26   ar
    22    26    27    1
    23    27    28    1
    24    27    29    1
    25    27    30    1
    26     6     7    1
    27     7     8    1
    28    15    16   ar
    29    16    17   ar
    30    17     9   ar
    31    16    12   ar
    32     8     3    1
    33    26    20   ar
@<TRIPOS>MOLECULE
*****
 30 33 0 0 0
SMALL
GASTEIGER

@<TRIPOS>ATOM
      1 C         139.8744  145.2357  160.8597 C.2     1  UNL1        0.2855
      2 O         139.2519  146.5926  161.0062 O.2     1  UNL1       -0.2665
      3 N         139.7228  144.2191  161.9522 N.am    1  UNL1       -0.2735
      4 C         138.9488  144.5593  163.1912 C.3     1  UNL1        0.0941
      5 C         138.7972  143.5427  164.2837 C.3     1  UNL1        0.0259
      6 C         139.4196  142.1858  164.1372 C.3     1  UNL1        0.0258
      7 C         140.1937  141.8456  162.8981 C.3     1  UNL1        0.0259
      8 C         140.3453  142.8622  161.8057 C.3     1  UNL1        0.0941
      9 C         138.8070  142.2610  157.1546 C.ar    1  UNL1        0.0861
     10 C         139.8842  142.2207  156.1115 C.ar    1  UNL1        0.0150
     11 C         141.1245  143.0468  156.2819 C.ar    1  UNL1        0.0400
     12 C         141.2877  143.9132  157.4954 C.ar    1  UNL1        0.1705
     13 N         142.3913  144.8301  157.9329 N.ar    1  UNL1       -0.1283
     14 N         141.9961  145.4372  159.2465 N.ar    1  UNL1       -0.1236
     15 C         140.6484  144.8954  159.6208 C.ar    1  UNL1        0.2244
     16 N         140.2106  143.9535  158.5385 N.ar    1  UNL1       -0.2681
     17 C         138.9702  143.1274  158.3681 C.ar    1  UNL1        0.0933
     18 N         136.3263  140.6088  156.8138 N.1     1  UNL1       -0.1908
     19 C         137.5667  141.4349  156.9842 C.1     1  UNL1        0.1019
     20 C         139.2680  141.1692  165.2297 C.ar    1  UNL1       -0.0163
     21 C         138.1040  140.2233  165.2176 C.ar    1  UNL1       -0.0042
     22 C         137.9524  139.2067  166.3101 C.ar    1  UNL1        0.0020
     23 C         138.9648  139.1360  167.4147 C.ar    1  UNL1        0.0296
     24 C         140.1289  140.0821  167.4267 C.ar    1  UNL1        0.1437
     25 F         141.1413  140.0115  168.5313 F       1  UNL1       -0.2042
     26 C         140.2805  141.0987  166.3342 C.ar    1  UNL1        0.0948
     27 C         141.4445  142.0447  166.3462 C.3     1  UNL1        0.4204
     28 F         142.6084  142.9907  166.3582 F       1  UNL1       -0.1658
     29 F         140.6349  143.0307  167.1352 F       1  UNL1       -0.1658
     30 F         142.2541  141.0587  165.5573 F       1  UNL1       -0.1658
@<TRIPOS>BOND
     1    18    19    3
     2    19     9    1
     3     9    10   ar
     4    10    11   ar
     5    11    12   ar
     6    12    13   ar
     7    13    14   ar
     8    14    15   ar
     9    15     1    1
    10     1     2    2
    11     1     3   am
    12     3     4    1
    13     4     5    1
    14     5     6    1
    15     6    20    1
    16    20    21   ar
    17    21    22   ar
    18    22    23   ar
    19    23    24   ar
    20    24    25    1
    21    24    26   ar
    22    26    27    1
    23    27    28    1
    24    27    29    1
    25    27    30    1
    26     6     7    1
    27     7     8    1
    28    15    16   ar
    29    16    17   ar
    30    17     9   ar
    31    16    12   ar
    32     8     3    1
    33    26    20   ar
@<TRIPOS>MOLECULE
*****
 30 33 0 0 0
SMALL
GASTEIGER

@<TRIPOS>ATOM
      1 C         142.3354  138.2950  157.2928 C.2     1  UNL1        0.2855
      2 O         143.7581  138.7159  157.0716 O.2     1  UNL1       -0.2665
      3 N         141.5314  138.9188  158.3948 N.am    1  UNL1       -0.2735
      4 C         142.1500  139.9635  159.2757 C.3     1  UNL1        0.0941
      5 C         141.3460  140.5872  160.3777 C.3     1  UNL1        0.0259
      6 C         139.9234  140.1664  160.5989 C.3     1  UNL1        0.0258
      7 C         139.3047  139.1217  159.7179 C.3     1  UNL1        0.0259
      8 C         140.1087  138.4979  158.6159 C.3     1  UNL1        0.0941
      9 C         143.3712  133.5677  156.7488 C.ar    1  UNL1        0.0861
     10 C         142.4873  132.8899  155.7442 C.ar    1  UNL1        0.0150
     11 C         141.4232  133.6721  155.0330 C.ar    1  UNL1        0.0400
     12 C         141.2429  135.1320  155.3263 C.ar    1  UNL1        0.1705
     13 N         140.2865  136.1536  154.7864 N.ar    1  UNL1       -0.1283
     14 N         140.5794  137.4629  155.4574 N.ar    1  UNL1       -0.1236
     15 C         141.7167  137.2504  156.4119 C.ar    1  UNL1        0.2244
     16 N         142.1269  135.8098  156.3309 N.ar    1  UNL1       -0.2681
     17 C         143.1910  135.0277  157.0421 C.ar    1  UNL1        0.0933
     18 N         145.4996  132.0035  158.1712 N.1     1  UNL1       -0.1908
     19 C         144.4354  132.7856  157.4600 C.1     1  UNL1        0.1019
     20 C         139.1194  140.7902  161.7009 C.ar    1  UNL1       -0.0163
     21 C         138.5851  142.1829  161.5436 C.ar    1  UNL1       -0.0042
     22 C         137.7811  142.8067  162.6456 C.ar    1  UNL1        0.0020
     23 C         137.5114  142.0377  163.9050 C.ar    1  UNL1        0.0296
     24 C         138.0457  140.6449  164.0623 C.ar    1  UNL1        0.1437
     25 F         137.7759  139.8759  165.3216 F       1  UNL1       -0.2042
     26 C         138.8497  140.0211  162.9602 C.ar    1  UNL1        0.0948
     27 C         139.3839  138.6284  163.1174 C.3     1  UNL1        0.4204
     28 F         139.9181  137.2356  163.2746 F       1  UNL1       -0.1658
     29 F         138.0839  138.0731  162.6155 F       1  UNL1       -0.1658
     30 F         140.6838  139.1836  163.6193 F       1  UNL1       -0.1658
@<TRIPOS>BOND
     1    18    19    3
     2    19     9    1
     3     9    10   ar
     4    10    11   ar
     5    11    12   ar
     6    12    13   ar
     7    13    14   ar
     8    14    15   ar
     9    15     1    1
    10     1     2    2
    11     1     3   am
    12     3     4    1
    13     4     5    1
    14     5     6    1
    15     6    20    1
    16    20    21   ar
    17    21    22   ar
    18    22    23   ar
    19    23    24   ar
    20    24    25    1
    21    24    26   ar
    22    26    27    1
    23    27    28    1
    24    27    29    1
    25    27    30    1
    26     6     7    1
    27     7     8    1
    28    15    16   ar
    29    16    17   ar
    30    17     9   ar
    31    16    12   ar
    32     8     3    1
    33    26    20   ar
@<TRIPOS>MOLECULE
*****
 30 33 0 0 0
SMALL
GASTEIGER

@<TRIPOS>ATOM
      1 C         140.0005  138.6360  162.2226 C.2     1  UNL1        0.2855
      2 O         140.8765  137.4852  161.8248 O.2     1  UNL1       -0.2665
      3 N         140.0506  139.1671  163.6245 N.am    1  UNL1       -0.2735
      4 C         140.9766  138.5475  164.6287 C.3     1  UNL1        0.0941
      5 C         141.0267  139.0786  166.0306 C.3     1  UNL1        0.0259
      6 C         140.1507  140.2294  166.4285 C.3     1  UNL1        0.0258
      7 C         139.2246  140.8490  165.4242 C.3     1  UNL1        0.0259
      8 C         139.1745  140.3179  164.0223 C.3     1  UNL1        0.0941
      9 C         140.7271  142.2214  159.0080 C.ar    1  UNL1        0.0861
     10 C         139.5076  142.5252  158.1893 C.ar    1  UNL1        0.0150
     11 C         138.2427  141.7502  158.4117 C.ar    1  UNL1        0.0400
     12 C         138.1973  140.6714  159.4529 C.ar    1  UNL1        0.1705
     13 N         137.1011  139.7474  159.8937 N.ar    1  UNL1       -0.1283
     14 N         137.6431  138.8725  160.9849 N.ar    1  UNL1       -0.1236
     15 C         139.0743  139.2557  161.2185 C.ar    1  UNL1        0.2244
     16 N         139.4169  140.3676  160.2716 N.ar    1  UNL1       -0.2681
     17 C         140.6818  141.1426  160.0492 C.ar    1  UNL1        0.0933
     18 N         143.2569  143.7713  158.5632 N.1     1  UNL1       -0.1908
     19 C         141.9920  142.9963  158.7856 C.1     1  UNL1        0.1019
     20 C         140.2008  140.7605  167.8304 C.ar    1  UNL1       -0.0163
     21 C         139.2590  140.2267  168.8687 C.ar    1  UNL1       -0.0042
     22 C         139.3091  140.7577  170.2706 C.ar    1  UNL1        0.0020
     23 C         140.3010  141.8227  170.6342 C.ar    1  UNL1        0.0296
     24 C         141.2428  142.3565  169.5959 C.ar    1  UNL1        0.1437
     25 F         142.2346  143.4214  169.9595 F       1  UNL1       -0.2042
     26 C         141.1927  141.8254  168.1939 C.ar    1  UNL1        0.0948
     27 C         142.1344  142.3591  167.1556 C.3     1  UNL1        0.4204
     28 F         143.0762  142.8928  166.1172 F       1  UNL1       -0.1658
     29 F         143.2200  141.4679  167.6821 F       1  UNL1       -0.1658
     30 F         141.0489  143.2504  166.6290 F       1  UNL1       -0.1658
@<TRIPOS>BOND
     1    18    19    3
     2    19     9    1
     3     9    10   ar
     4    10    11   ar
     5    11    12   ar
     6    12    13   ar
     7    13    14   ar
     8    14    15   ar
     9    15     1    1
    10     1     2    2
    11     1     3   am
    12     3     4    1
    13     4     5    1
    14     5     6    1
    15     6    20    1
    16    20    21   ar
    17    21    22   ar
    18    22    23   ar
    19    23    24   ar
    20    24    25    1
    21    24    26   ar
    22    26    27    1
    23    27    28    1
    24    27    29    1
    25    27    30    1
    26     6     7    1
    27     7     8    1
    28    15    16   ar
    29    16    17   ar
    30    17     9   ar
    31    16    12   ar
    32     8     3    1
    33    26    20   ar
