@<TRIPOS>MOLECULE
*****
 32 34 0 0 0
SMALL
GASTEIGER

@<TRIPOS>ATOM
      1 C         141.6418  143.3472  162.4132 C.ar    1  UNL1       -0.0197
      2 C         142.3053  144.0030  163.5878 C.ar    1  UNL1       -0.0042
      3 C         142.5408  143.2238  164.8476 C.ar    1  UNL1       -0.0003
      4 C         142.1127  141.7887  164.9329 C.ar    1  UNL1        0.0000
      5 C         141.4492  141.1329  163.7584 C.ar    1  UNL1       -0.0003
      6 C         141.2137  141.9121  162.4986 C.ar    1  UNL1       -0.0042
      7 C         140.2517  145.0465  160.8884 C.3     1  UNL1        0.0964
      8 C         140.4159  145.6111  159.5085 C.3     1  UNL1        0.0901
      9 N         141.6722  145.0400  158.9205 N.3     1  UNL1       -0.2700
     10 C         142.2200  145.3347  157.5556 C.3     1  UNL1        0.0897
     11 C         142.2842  144.1224  159.9370 C.3     1  UNL1        0.0780
     12 C         141.4063  144.1265  161.1533 C.3     1  UNL1        0.0557
     13 N         139.1297  145.3490  161.8370 N.3     1  UNL1       -0.1830
     14 H         139.4442  146.1172  162.4297 H       1  UNL1        0.1484
     15 S         138.6126  144.2793  162.7526 S.O2    1  UNL1        0.0390
     16 O         138.0956  143.5162  161.5691 O.2     1  UNL1       -0.1576
     17 O         139.1296  145.0423  163.9360 O.2     1  UNL1       -0.1576
     18 C         138.3418  143.3027  165.1448 C.3     1  UNL1        0.0270
     19 C         138.0955  143.2096  163.6681 C.3     1  UNL1        0.1457
     20 C         137.3321  142.0467  163.1070 C.3     1  UNL1        0.0270
     21 C         142.3482  141.0094  166.1929 C.ar    1  UNL1        0.0013
     22 C         142.7612  139.5694  166.1180 C.ar    1  UNL1        0.0001
     23 C         142.9967  138.7901  167.3779 C.ar    1  UNL1        0.0013
     24 C         142.8191  139.4510  168.7127 C.ar    1  UNL1        0.0158
     25 C         142.4060  140.8911  168.7876 C.ar    1  UNL1        0.0644
     26 C         142.1706  141.6703  167.5277 C.ar    1  UNL1        0.0158
     27 N         142.2285  141.5519  170.1224 N.pl3   1  UNL1       -0.2187
     28 H         142.9394  141.4904  170.8007 H       1  UNL1        0.1734
     29 S         140.9676  142.3066  170.4238 S.O2    1  UNL1        0.0558
     30 C         139.7068  143.0613  170.7252 C.3     1  UNL1        0.1996
     31 O         140.2125  141.0131  170.5041 O.2     1  UNL1       -0.1544
     32 O         141.7227  143.6002  170.3436 O.2     1  UNL1       -0.1544
@<TRIPOS>BOND
     1    18    19    1
     2    19    20    1
     3    19    15    1
     4    15    16    2
     5    15    17    2
     6    15    13    1
     7     7    13    1
     8     7     8    1
     9     8     9    1
    10     9    10    1
    11     9    11    1
    12    11    12    1
    13    12     1    1
    14     1     2   ar
    15     2     3   ar
    16     3     4   ar
    17     4    21    1
    18    21    22   ar
    19    22    23   ar
    20    23    24   ar
    21    24    25   ar
    22    25    27    1
    23    27    29    1
    24    29    30    1
    25    29    31    2
    26    29    32    2
    27    25    26   ar
    28     4     5   ar
    29     5     6   ar
    30    12     7    1
    31     6     1   ar
    32    26    21   ar
    33    13    14    1
    34    27    28    1
@<TRIPOS>MOLECULE
*****
 32 34 0 0 0
SMALL
GASTEIGER

@<TRIPOS>ATOM
      1 C         139.4376  142.6994  161.4426 C.ar    1  UNL1       -0.0197
      2 C         140.3568  141.5758  161.8200 C.ar    1  UNL1       -0.0042
      3 C         140.2230  140.9153  163.1601 C.ar    1  UNL1       -0.0003
      4 C         139.1700  141.3785  164.1227 C.ar    1  UNL1        0.0000
      5 C         138.2507  142.5021  163.7453 C.ar    1  UNL1       -0.0003
      6 C         138.3845  143.1625  162.4052 C.ar    1  UNL1       -0.0042
      7 C         140.2738  144.6557  159.8243 C.3     1  UNL1        0.0964
      8 C         140.1627  144.9372  158.3552 C.3     1  UNL1        0.0901
      9 N         139.3917  143.8152  157.7252 N.3     1  UNL1       -0.2700
     10 C         139.0467  143.6901  156.2708 C.3     1  UNL1        0.0897
     11 C         139.0262  142.8404  158.8051 C.3     1  UNL1        0.0780
     12 C         139.5714  143.3599  160.1024 C.3     1  UNL1        0.0557
     13 N         140.9657  145.5187  160.8375 N.3     1  UNL1       -0.1830
     14 H         141.5462  146.1762  160.3168 H       1  UNL1        0.1484
     15 S         141.8464  144.8939  161.8786 S.O2    1  UNL1        0.0390
     16 O         142.7137  144.3174  160.7990 O.2     1  UNL1       -0.1576
     17 O         140.9793  145.4705  162.9582 O.2     1  UNL1       -0.1576
     18 C         144.1708  143.9975  162.6159 C.3     1  UNL1        0.0270
     19 C         142.7272  144.2692  162.9197 C.3     1  UNL1        0.1457
     20 C         142.1644  143.9160  164.2645 C.3     1  UNL1        0.0270
     21 C         139.0362  140.7180  165.4629 C.ar    1  UNL1        0.0013
     22 C         138.0616  139.5934  165.6508 C.ar    1  UNL1        0.0001
     23 C         137.9278  138.9329  166.9909 C.ar    1  UNL1        0.0013
     24 C         138.7687  139.3970  168.1431 C.ar    1  UNL1        0.0158
     25 C         139.7433  140.5217  167.9551 C.ar    1  UNL1        0.0644
     26 C         139.8770  141.1822  166.6151 C.ar    1  UNL1        0.0158
     27 N         140.5841  140.9859  169.1073 N.pl3   1  UNL1       -0.2187
     28 H         141.1915  140.3561  169.5587 H       1  UNL1        0.1734
     29 S         140.4997  142.4098  169.5717 S.O2    1  UNL1        0.0558
     30 C         140.4152  143.8335  170.0361 C.3     1  UNL1        0.1996
     31 O         139.2907  142.0705  170.3922 O.2     1  UNL1       -0.1544
     32 O         141.7087  142.7490  168.7513 O.2     1  UNL1       -0.1544
@<TRIPOS>BOND
     1    18    19    1
     2    19    20    1
     3    19    15    1
     4    15    16    2
     5    15    17    2
     6    15    13    1
     7     7    13    1
     8     7     8    1
     9     8     9    1
    10     9    10    1
    11     9    11    1
    12    11    12    1
    13    12     1    1
    14     1     2   ar
    15     2     3   ar
    16     3     4   ar
    17     4    21    1
    18    21    22   ar
    19    22    23   ar
    20    23    24   ar
    21    24    25   ar
    22    25    27    1
    23    27    29    1
    24    29    30    1
    25    29    31    2
    26    29    32    2
    27    25    26   ar
    28     4     5   ar
    29     5     6   ar
    30    12     7    1
    31     6     1   ar
    32    26    21   ar
    33    13    14    1
    34    27    28    1
@<TRIPOS>MOLECULE
*****
 32 34 0 0 0
SMALL
GASTEIGER

@<TRIPOS>ATOM
      1 C         141.4672  142.7604  162.2471 C.ar    1  UNL1       -0.0197
      2 C         141.9624  143.4006  163.5099 C.ar    1  UNL1       -0.0042
      3 C         141.5084  142.8814  164.8419 C.ar    1  UNL1       -0.0003
      4 C         140.5591  141.7220  164.9111 C.ar    1  UNL1        0.0000
      5 C         140.0640  141.0818  163.6482 C.ar    1  UNL1       -0.0003
      6 C         140.5180  141.6010  162.3162 C.ar    1  UNL1       -0.0042
      7 C         142.9538  142.6489  160.0283 C.3     1  UNL1        0.0964
      8 C         143.0932  143.5001  158.8011 C.3     1  UNL1        0.0901
      9 N         142.1467  144.6568  158.9293 N.3     1  UNL1       -0.2700
     10 C         141.9577  145.7567  157.9270 C.3     1  UNL1        0.0897
     11 C         141.4225  144.5205  160.2358 C.3     1  UNL1        0.0780
     12 C         141.9213  143.2795  160.9150 C.3     1  UNL1        0.0557
     13 N         143.7136  141.3885  160.3179 N.3     1  UNL1       -0.1830
     14 H         143.0964  140.6117  160.0813 H       1  UNL1        0.1484
     15 S         144.2303  141.1252  161.7012 S.O2    1  UNL1        0.0390
     16 O         145.0419  142.3851  161.6379 O.2     1  UNL1       -0.1576
     17 O         143.4188  139.8653  161.7646 O.2     1  UNL1       -0.1576
     18 C         144.1230  139.7890  163.9268 C.3     1  UNL1        0.0270
     19 C         144.7470  140.8619  163.0846 C.3     1  UNL1        0.1457
     20 C         145.8878  141.6717  163.6258 C.3     1  UNL1        0.0270
     21 C         140.1051  141.2029  166.2432 C.ar    1  UNL1        0.0013
     22 C         139.2944  139.9432  166.3205 C.ar    1  UNL1        0.0001
     23 C         138.8404  139.4241  167.6526 C.ar    1  UNL1        0.0013
     24 C         139.1971  140.1646  168.9073 C.ar    1  UNL1        0.0158
     25 C         140.0078  141.4243  168.8299 C.ar    1  UNL1        0.0644
     26 C         140.4618  141.9434  167.4979 C.ar    1  UNL1        0.0158
     27 N         140.3645  142.1649  170.0847 N.pl3   1  UNL1       -0.2187
     28 H         139.6770  142.3340  170.7688 H       1  UNL1        0.1734
     29 S         141.7687  142.6478  170.2971 S.O2    1  UNL1        0.0558
     30 C         143.1728  143.1307  170.5094 C.3     1  UNL1        0.1996
     31 O         142.2492  141.2278  170.3493 O.2     1  UNL1       -0.1544
     32 O         141.2882  144.0678  170.2448 O.2     1  UNL1       -0.1544
@<TRIPOS>BOND
     1    18    19    1
     2    19    20    1
     3    19    15    1
     4    15    16    2
     5    15    17    2
     6    15    13    1
     7     7    13    1
     8     7     8    1
     9     8     9    1
    10     9    10    1
    11     9    11    1
    12    11    12    1
    13    12     1    1
    14     1     2   ar
    15     2     3   ar
    16     3     4   ar
    17     4    21    1
    18    21    22   ar
    19    22    23   ar
    20    23    24   ar
    21    24    25   ar
    22    25    27    1
    23    27    29    1
    24    29    30    1
    25    29    31    2
    26    29    32    2
    27    25    26   ar
    28     4     5   ar
    29     5     6   ar
    30    12     7    1
    31     6     1   ar
    32    26    21   ar
    33    13    14    1
    34    27    28    1
@<TRIPOS>MOLECULE
*****
 32 34 0 0 0
SMALL
GASTEIGER

@<TRIPOS>ATOM
      1 C         139.8699  139.8225  163.3818 C.ar    1  UNL1       -0.0197
      2 C         139.1704  139.0140  164.4339 C.ar    1  UNL1       -0.0042
      3 C         139.6598  139.0440  165.8515 C.ar    1  UNL1       -0.0003
      4 C         140.8486  139.8825  166.2170 C.ar    1  UNL1        0.0000
      5 C         141.5480  140.6911  165.1649 C.ar    1  UNL1       -0.0003
      6 C         141.0587  140.6611  163.7473 C.ar    1  UNL1       -0.0042
      7 C         138.1595  140.4868  161.4380 C.3     1  UNL1        0.0964
      8 C         138.0507  140.1864  159.9724 C.3     1  UNL1        0.0901
      9 N         139.2047  139.3064  159.5928 N.3     1  UNL1       -0.2700
     10 C         139.4871  138.7649  158.2227 C.3     1  UNL1        0.0897
     11 C         140.0265  139.0630  160.8237 C.3     1  UNL1        0.0780
     12 C         139.3806  139.7926  161.9641 C.3     1  UNL1        0.0557
     13 N         137.2132  141.3330  162.2371 N.3     1  UNL1       -0.1830
     14 H         136.4250  141.5496  161.6271 H       1  UNL1        0.1484
     15 S         137.6798  142.6339  162.8200 S.O2    1  UNL1        0.0390
     16 O         137.5458  142.0632  164.2008 O.2     1  UNL1       -0.1576
     17 O         137.8137  143.2046  161.4394 O.2     1  UNL1       -0.1576
     18 C         138.9302  144.8964  162.5599 C.3     1  UNL1        0.0270
     19 C         138.1463  143.9349  163.4030 C.3     1  UNL1        0.1457
     20 C         137.8290  144.2742  164.8293 C.3     1  UNL1        0.0270
     21 C         141.3379  139.9125  167.6347 C.ar    1  UNL1        0.0013
     22 C         142.4519  139.0040  168.0629 C.ar    1  UNL1        0.0001
     23 C         142.9412  139.0339  169.4806 C.ar    1  UNL1        0.0013
     24 C         142.3164  139.9724  170.4700 C.ar    1  UNL1        0.0158
     25 C         141.2023  140.8810  170.0417 C.ar    1  UNL1        0.0644
     26 C         140.7131  140.8510  168.6240 C.ar    1  UNL1        0.0158
     27 N         140.5776  141.8195  171.0310 N.pl3   1  UNL1       -0.2187
     28 H         140.3310  141.4967  171.9278 H       1  UNL1        0.1734
     29 S         140.3285  143.2499  170.6539 S.O2    1  UNL1        0.0558
     30 C         140.0794  144.6802  170.2769 C.3     1  UNL1        0.1996
     31 O         138.8768  143.0869  170.9944 O.2     1  UNL1       -0.1544
     32 O         141.7801  143.4129  170.3134 O.2     1  UNL1       -0.1544
@<TRIPOS>BOND
     1    18    19    1
     2    19    20    1
     3    19    15    1
     4    15    16    2
     5    15    17    2
     6    15    13    1
     7     7    13    1
     8     7     8    1
     9     8     9    1
    10     9    10    1
    11     9    11    1
    12    11    12    1
    13    12     1    1
    14     1     2   ar
    15     2     3   ar
    16     3     4   ar
    17     4    21    1
    18    21    22   ar
    19    22    23   ar
    20    23    24   ar
    21    24    25   ar
    22    25    27    1
    23    27    29    1
    24    29    30    1
    25    29    31    2
    26    29    32    2
    27    25    26   ar
    28     4     5   ar
    29     5     6   ar
    30    12     7    1
    31     6     1   ar
    32    26    21   ar
    33    13    14    1
    34    27    28    1
@<TRIPOS>MOLECULE
*****
 32 34 0 0 0
SMALL
GASTEIGER

@<TRIPOS>ATOM
      1 C         142.1896  141.2734  161.7232 C.ar    1  UNL1       -0.0197
      2 C         141.1357  142.1754  162.2937 C.ar    1  UNL1       -0.0042
      3 C         140.3757  141.7599  163.5183 C.ar    1  UNL1       -0.0003
      4 C         140.6695  140.4424  164.1724 C.ar    1  UNL1        0.0000
      5 C         141.7234  139.5403  163.6018 C.ar    1  UNL1       -0.0003
      6 C         142.4834  139.9558  162.3772 C.ar    1  UNL1       -0.0042
      7 C         144.3351  142.2630  160.4732 C.3     1  UNL1        0.0964
      8 C         144.6994  142.5321  159.0432 C.3     1  UNL1        0.0901
      9 N         143.5390  142.1242  158.1846 N.3     1  UNL1       -0.2700
     10 C         143.4718  142.2205  156.6893 C.3     1  UNL1        0.0897
     11 C         142.4576  141.6030  159.0841 C.3     1  UNL1        0.0780
     12 C         142.9497  141.6888  160.4985 C.3     1  UNL1        0.0557
     13 N         145.2039  142.5227  161.6682 N.3     1  UNL1       -0.1830
     14 H         145.6249  141.6300  161.9256 H       1  UNL1        0.1484
     15 S         144.6072  143.0967  162.9189 S.O2    1  UNL1        0.0390
     16 O         144.1504  144.3001  162.1486 O.2     1  UNL1       -0.1576
     17 O         145.0639  141.8934  163.6891 O.2     1  UNL1       -0.1576
     18 C         143.6541  145.1266  164.2308 C.3     1  UNL1        0.0270
     19 C         144.0104  143.6708  164.1696 C.3     1  UNL1        0.1457
     20 C         143.7699  142.7892  165.3590 C.3     1  UNL1        0.0270
     21 C         139.9094  140.0269  165.3970 C.ar    1  UNL1        0.0013
     22 C         138.6192  139.2744  165.2596 C.ar    1  UNL1        0.0001
     23 C         137.8591  138.8589  166.4843 C.ar    1  UNL1        0.0013
     24 C         138.3893  139.1960  167.8463 C.ar    1  UNL1        0.0158
     25 C         139.6797  139.9486  167.9837 C.ar    1  UNL1        0.0644
     26 C         140.4397  140.3640  166.7591 C.ar    1  UNL1        0.0158
     27 N         140.2099  140.2857  169.3458 N.pl3   1  UNL1       -0.2187
     28 H         140.6258  139.5857  169.8992 H       1  UNL1        0.1734
     29 S         140.1064  141.6893  169.8646 S.O2    1  UNL1        0.0558
     30 C         140.0030  143.0929  170.3834 C.3     1  UNL1        0.1996
     31 O         138.7564  141.3775  170.4390 O.2     1  UNL1       -0.1544
     32 O         141.4565  142.0011  169.2902 O.2     1  UNL1       -0.1544
@<TRIPOS>BOND
     1    18    19    1
     2    19    20    1
     3    19    15    1
     4    15    16    2
     5    15    17    2
     6    15    13    1
     7     7    13    1
     8     7     8    1
     9     8     9    1
    10     9    10    1
    11     9    11    1
    12    11    12    1
    13    12     1    1
    14     1     2   ar
    15     2     3   ar
    16     3     4   ar
    17     4    21    1
    18    21    22   ar
    19    22    23   ar
    20    23    24   ar
    21    24    25   ar
    22    25    27    1
    23    27    29    1
    24    29    30    1
    25    29    31    2
    26    29    32    2
    27    25    26   ar
    28     4     5   ar
    29     5     6   ar
    30    12     7    1
    31     6     1   ar
    32    26    21   ar
    33    13    14    1
    34    27    28    1
@<TRIPOS>MOLECULE
*****
 32 34 0 0 0
SMALL
GASTEIGER

@<TRIPOS>ATOM
      1 C         142.2423  138.0850  158.7619 C.ar    1  UNL1       -0.0197
      2 C         142.9426  137.7554  160.0467 C.ar    1  UNL1       -0.0042
      3 C         142.2084  137.8635  161.3502 C.ar    1  UNL1       -0.0003
      4 C         140.7738  138.3013  161.3688 C.ar    1  UNL1        0.0000
      5 C         140.0735  138.6309  160.0840 C.ar    1  UNL1       -0.0003
      6 C         140.8077  138.5228  158.7805 C.ar    1  UNL1       -0.0042
      7 C         143.0792  136.7486  156.6035 C.3     1  UNL1        0.0964
      8 C         143.9031  137.0906  155.3976 C.3     1  UNL1        0.0901
      9 N         144.3097  138.5304  155.5071 N.3     1  UNL1       -0.2700
     10 C         145.1426  139.2891  154.5169 C.3     1  UNL1        0.0897
     11 C         143.7370  139.0780  156.7807 C.3     1  UNL1        0.0780
     12 C         142.9766  137.9768  157.4583 C.3     1  UNL1        0.0557
     13 N         142.4657  135.4127  156.9020 N.3     1  UNL1       -0.1830
     14 H         142.0572  135.4781  157.8344 H       1  UNL1        0.1484
     15 S         143.3156  134.1769  156.8874 S.O2    1  UNL1        0.0390
     16 O         142.8693  133.8865  155.4851 O.2     1  UNL1       -0.1576
     17 O         143.7619  134.4672  158.2897 O.2     1  UNL1       -0.1576
     18 C         144.1285  132.0193  155.6899 C.3     1  UNL1        0.0270
     19 C         144.1655  132.9410  156.8727 C.3     1  UNL1        0.1457
     20 C         145.0524  132.6267  158.0409 C.3     1  UNL1        0.0270
     21 C         140.0396  138.4095  162.6724 C.ar    1  UNL1        0.0013
     22 C         140.1721  137.3249  163.7001 C.ar    1  UNL1        0.0001
     23 C         139.4378  137.4331  165.0037 C.ar    1  UNL1        0.0013
     24 C         138.5711  138.6258  165.2795 C.ar    1  UNL1        0.0158
     25 C         138.4386  139.7104  164.2518 C.ar    1  UNL1        0.0644
     26 C         139.1728  139.6022  162.9483 C.ar    1  UNL1        0.0158
     27 N         137.5718  140.9032  164.5276 N.pl3   1  UNL1       -0.2187
     28 H         136.7819  140.8139  165.1085 H       1  UNL1        0.1734
     29 S         137.9085  142.2319  163.9184 S.O2    1  UNL1        0.0558
     30 C         138.2453  143.5606  163.3093 C.3     1  UNL1        0.1996
     31 O         136.9513  141.9600  162.7960 O.2     1  UNL1       -0.1544
     32 O         138.8657  142.5039  165.0408 O.2     1  UNL1       -0.1544
@<TRIPOS>BOND
     1    18    19    1
     2    19    20    1
     3    19    15    1
     4    15    16    2
     5    15    17    2
     6    15    13    1
     7     7    13    1
     8     7     8    1
     9     8     9    1
    10     9    10    1
    11     9    11    1
    12    11    12    1
    13    12     1    1
    14     1     2   ar
    15     2     3   ar
    16     3     4   ar
    17     4    21    1
    18    21    22   ar
    19    22    23   ar
    20    23    24   ar
    21    24    25   ar
    22    25    27    1
    23    27    29    1
    24    29    30    1
    25    29    31    2
    26    29    32    2
    27    25    26   ar
    28     4     5   ar
    29     5     6   ar
    30    12     7    1
    31     6     1   ar
    32    26    21   ar
    33    13    14    1
    34    27    28    1
@<TRIPOS>MOLECULE
*****
 32 34 0 0 0
SMALL
GASTEIGER

@<TRIPOS>ATOM
      1 C         139.7291  142.1056  161.2876 C.ar    1  UNL1       -0.0197
      2 C         138.3414  141.9921  161.8455 C.ar    1  UNL1       -0.0042
      3 C         138.1316  141.4566  163.2308 C.ar    1  UNL1       -0.0003
      4 C         139.3095  141.0346  164.0582 C.ar    1  UNL1        0.0000
      5 C         140.6972  141.1480  163.5003 C.ar    1  UNL1       -0.0003
      6 C         140.9070  141.6836  162.1149 C.ar    1  UNL1       -0.0042
      7 C         139.9229  144.0873  159.5041 C.3     1  UNL1        0.0964
      8 C         140.1758  144.1645  158.0276 C.3     1  UNL1        0.0901
      9 N         140.3483  142.7660  157.5131 N.3     1  UNL1       -0.2700
     10 C         140.6194  142.3773  156.0900 C.3     1  UNL1        0.0897
     11 C         140.2019  141.8246  158.6717 C.3     1  UNL1        0.0780
     12 C         139.9391  142.6412  159.9022 C.3     1  UNL1        0.0557
     13 N         139.6941  145.2518  160.4215 N.3     1  UNL1       -0.1830
     14 H         140.1736  146.0513  160.0076 H       1  UNL1        0.1484
     15 S         140.1344  145.1766  161.8533 S.O2    1  UNL1        0.0390
     16 O         138.7080  145.3071  162.2988 O.2     1  UNL1       -0.1576
     17 O         141.5607  145.0461  161.4080 O.2     1  UNL1       -0.1576
     18 C         139.5783  144.7832  164.3605 C.3     1  UNL1        0.0270
     19 C         140.5746  145.1013  163.2853 C.3     1  UNL1        0.1457
     20 C         142.0112  145.3442  163.6421 C.3     1  UNL1        0.0270
     21 C         139.0996  140.4990  165.4436 C.ar    1  UNL1        0.0013
     22 C         138.1069  139.3996  165.6803 C.ar    1  UNL1        0.0001
     23 C         137.8970  138.8641  167.0657 C.ar    1  UNL1        0.0013
     24 C         138.6798  139.4279  168.2143 C.ar    1  UNL1        0.0158
     25 C         139.6725  140.5274  167.9775 C.ar    1  UNL1        0.0644
     26 C         139.8823  141.0629  166.5922 C.ar    1  UNL1        0.0158
     27 N         140.4552  141.0912  169.1262 N.pl3   1  UNL1       -0.2187
     28 H         140.0813  141.0653  170.0365 H       1  UNL1        0.1734
     29 S         141.8077  141.6946  168.8877 S.O2    1  UNL1        0.0558
     30 C         143.1601  142.2980  168.6493 C.3     1  UNL1        0.1996
     31 O         142.3904  140.3226  168.7208 O.2     1  UNL1       -0.1544
     32 O         141.2250  143.0666  169.0546 O.2     1  UNL1       -0.1544
@<TRIPOS>BOND
     1    18    19    1
     2    19    20    1
     3    19    15    1
     4    15    16    2
     5    15    17    2
     6    15    13    1
     7     7    13    1
     8     7     8    1
     9     8     9    1
    10     9    10    1
    11     9    11    1
    12    11    12    1
    13    12     1    1
    14     1     2   ar
    15     2     3   ar
    16     3     4   ar
    17     4    21    1
    18    21    22   ar
    19    22    23   ar
    20    23    24   ar
    21    24    25   ar
    22    25    27    1
    23    27    29    1
    24    29    30    1
    25    29    31    2
    26    29    32    2
    27    25    26   ar
    28     4     5   ar
    29     5     6   ar
    30    12     7    1
    31     6     1   ar
    32    26    21   ar
    33    13    14    1
    34    27    28    1
@<TRIPOS>MOLECULE
*****
 32 34 0 0 0
SMALL
GASTEIGER

@<TRIPOS>ATOM
      1 C         141.8843  140.4975  168.1633 C.ar    1  UNL1       -0.0197
      2 C         140.4167  140.3276  167.9037 C.ar    1  UNL1       -0.0042
      3 C         139.7462  141.1351  166.8321 C.ar    1  UNL1       -0.0003
      4 C         140.5433  142.1126  166.0202 C.ar    1  UNL1        0.0000
      5 C         142.0108  142.2825  166.2798 C.ar    1  UNL1       -0.0003
      6 C         142.6813  141.4750  167.3513 C.ar    1  UNL1       -0.0042
      7 C         142.9613  140.1880  170.5901 C.3     1  UNL1        0.0964
      8 C         143.5943  139.0485  171.3321 C.3     1  UNL1        0.0901
      9 N         143.5791  137.8460  170.4355 N.3     1  UNL1       -0.2700
     10 C         144.1126  136.4859  170.7754 C.3     1  UNL1        0.0897
     11 C         142.9366  138.2425  169.1393 C.3     1  UNL1        0.0780
     12 C         142.5548  139.6899  169.2349 C.3     1  UNL1        0.0557
     13 N         142.7687  141.5811  171.1117 N.3     1  UNL1       -0.1830
     14 H         142.8185  141.5242  172.1289 H       1  UNL1        0.1484
     15 S         141.5174  142.3394  170.7814 S.O2    1  UNL1        0.0390
     16 O         142.3297  143.3526  170.0305 O.2     1  UNL1       -0.1576
     17 O         140.7051  141.3264  171.5322 O.2     1  UNL1       -0.1576
     18 C         139.0527  142.9587  171.3217 C.3     1  UNL1        0.0270
     19 C         140.2661  143.0979  170.4509 C.3     1  UNL1        0.1457
     20 C         140.2283  143.9955  169.2497 C.3     1  UNL1        0.0270
     21 C         139.8727  142.9201  164.9486 C.ar    1  UNL1        0.0013
     22 C         138.3908  142.8112  164.7440 C.ar    1  UNL1        0.0001
     23 C         137.7202  143.6188  163.6724 C.ar    1  UNL1        0.0013
     24 C         138.5317  144.5352  162.8054 C.ar    1  UNL1        0.0158
     25 C         140.0137  144.6441  163.0100 C.ar    1  UNL1        0.0644
     26 C         140.6842  143.8366  164.0816 C.ar    1  UNL1        0.0158
     27 N         140.8252  145.5606  162.1430 N.pl3   1  UNL1       -0.2187
     28 H         141.1846  146.3988  162.5138 H       1  UNL1        0.1734
     29 S         141.0890  145.1999  160.7111 S.O2    1  UNL1        0.0558
     30 C         141.3529  144.8391  159.2793 C.3     1  UNL1        0.1996
     31 O         139.8052  145.8623  160.3076 O.2     1  UNL1       -0.1544
     32 O         142.3729  144.5374  161.1146 O.2     1  UNL1       -0.1544
@<TRIPOS>BOND
     1    18    19    1
     2    19    20    1
     3    19    15    1
     4    15    16    2
     5    15    17    2
     6    15    13    1
     7     7    13    1
     8     7     8    1
     9     8     9    1
    10     9    10    1
    11     9    11    1
    12    11    12    1
    13    12     1    1
    14     1     2   ar
    15     2     3   ar
    16     3     4   ar
    17     4    21    1
    18    21    22   ar
    19    22    23   ar
    20    23    24   ar
    21    24    25   ar
    22    25    27    1
    23    27    29    1
    24    29    30    1
    25    29    31    2
    26    29    32    2
    27    25    26   ar
    28     4     5   ar
    29     5     6   ar
    30    12     7    1
    31     6     1   ar
    32    26    21   ar
    33    13    14    1
    34    27    28    1
@<TRIPOS>MOLECULE
*****
 32 34 0 0 0
SMALL
GASTEIGER

@<TRIPOS>ATOM
      1 C         143.1031  140.0477  162.8250 C.ar    1  UNL1       -0.0197
      2 C         143.9758  139.1447  163.6454 C.ar    1  UNL1       -0.0042
      3 C         143.8509  139.1363  165.1401 C.ar    1  UNL1       -0.0003
      4 C         142.8533  140.0307  165.8145 C.ar    1  UNL1        0.0000
      5 C         141.9806  140.9337  164.9941 C.ar    1  UNL1       -0.0003
      6 C         142.1055  140.9421  163.4993 C.ar    1  UNL1       -0.0042
      7 C         142.6314  139.0512  160.3899 C.3     1  UNL1        0.0964
      8 C         143.0061  139.4451  158.9918 C.3     1  UNL1        0.0901
      9 N         143.8342  140.6935  159.0681 N.3     1  UNL1       -0.2700
     10 C         144.4220  141.4341  157.9037 C.3     1  UNL1        0.0897
     11 C         143.9713  141.0711  160.5133 C.3     1  UNL1        0.0780
     12 C         143.2279  140.0561  161.3302 C.3     1  UNL1        0.0557
     13 N         141.8052  137.8613  160.7792 N.3     1  UNL1       -0.1830
     14 H         141.4654  137.4428  159.9133 H       1  UNL1        0.1484
     15 S         140.6132  138.0357  161.6728 S.O2    1  UNL1        0.0390
     16 O         141.2215  137.0928  162.6682 O.2     1  UNL1       -0.1576
     17 O         140.0049  138.9786  160.6774 O.2     1  UNL1       -0.1576
     18 C         138.0720  138.4862  161.9719 C.3     1  UNL1        0.0270
     19 C         139.4212  138.2101  162.5665 C.3     1  UNL1        0.1457
     20 C         139.5784  138.1084  164.0547 C.3     1  UNL1        0.0270
     21 C         142.7284  140.0223  167.3093 C.ar    1  UNL1        0.0013
     22 C         142.9009  138.7405  168.0690 C.ar    1  UNL1        0.0001
     23 C         142.7760  138.7320  169.5639 C.ar    1  UNL1        0.0013
     24 C         142.4787  140.0053  170.2989 C.ar    1  UNL1        0.0158
     25 C         142.3063  141.2872  169.5390 C.ar    1  UNL1        0.0644
     26 C         142.4311  141.2956  168.0443 C.ar    1  UNL1        0.0158
     27 N         142.0090  142.5605  170.2740 N.pl3   1  UNL1       -0.2187
     28 H         142.7403  143.1776  170.5054 H       1  UNL1        0.1734
     29 S         140.5973  142.8936  170.6566 S.O2    1  UNL1        0.0558
     30 C         139.1857  143.2267  171.0390 C.3     1  UNL1        0.1996
     31 O         140.7668  142.1374  171.9408 O.2     1  UNL1       -0.1544
     32 O         140.4278  143.6498  169.3723 O.2     1  UNL1       -0.1544
@<TRIPOS>BOND
     1    18    19    1
     2    19    20    1
     3    19    15    1
     4    15    16    2
     5    15    17    2
     6    15    13    1
     7     7    13    1
     8     7     8    1
     9     8     9    1
    10     9    10    1
    11     9    11    1
    12    11    12    1
    13    12     1    1
    14     1     2   ar
    15     2     3   ar
    16     3     4   ar
    17     4    21    1
    18    21    22   ar
    19    22    23   ar
    20    23    24   ar
    21    24    25   ar
    22    25    27    1
    23    27    29    1
    24    29    30    1
    25    29    31    2
    26    29    32    2
    27    25    26   ar
    28     4     5   ar
    29     5     6   ar
    30    12     7    1
    31     6     1   ar
    32    26    21   ar
    33    13    14    1
    34    27    28    1
