@<TRIPOS>MOLECULE
*****
 30 33 0 0 0
SMALL
GASTEIGER

@<TRIPOS>ATOM
      1 N         139.9861  140.5538  163.7765 N.am    1  UNL1       -0.2606
      2 C         141.2384  141.1608  163.2170 C.3     1  UNL1        0.1169
      3 C         142.0080  141.7659  164.3534 C.3     1  UNL1        0.1212
      4 N         141.2313  141.5328  165.6153 N.am    1  UNL1       -0.2414
      5 C         139.9817  140.7836  165.2587 C.2     1  UNL1        0.3111
      6 O         138.9149  140.3419  166.2163 O.2     1  UNL1       -0.2520
      7 C         141.6336  141.9718  166.9921 C.ar    1  UNL1        0.0553
      8 C         143.0801  141.9643  167.3889 C.ar    1  UNL1        0.0149
      9 C         143.4824  142.4033  168.7657 C.ar    1  UNL1        0.0012
     10 C         142.4382  142.8497  169.7457 C.ar    1  UNL1        0.0039
     11 C         140.9916  142.8571  169.3488 C.ar    1  UNL1        0.0727
     12 C         140.5893  142.4181  167.9720 C.ar    1  UNL1        0.0188
     13 C         139.9473  143.3035  170.3288 C.3     1  UNL1        0.4186
     14 F         138.9031  143.7499  171.3087 F       1  UNL1       -0.1659
     15 F         140.4050  144.7231  170.1696 F       1  UNL1       -0.1659
     16 F         139.4897  141.8839  170.4879 F       1  UNL1       -0.1659
     17 C         138.9245  139.8418  162.9915 C.3     1  UNL1        0.1123
     18 C         137.7281  140.5962  162.4919 C.3     1  UNL1        0.0939
     19 C         138.2516  141.6097  160.1577 C.3     1  UNL1        0.0897
     20 N         137.9120  141.7935  161.6072 N.3     1  UNL1       -0.2701
     21 C         137.7563  143.1743  162.1719 C.3     1  UNL1        0.0721
     22 C         138.9590  143.9232  162.6646 C.3     1  UNL1        0.0147
     23 C         140.1423  144.3323  161.8385 C.3     1  UNL1        0.0013
     24 C         141.1041  145.0563  162.7332 C.3     1  UNL1        0.0000
     25 C         140.5154  145.0947  164.1123 C.3     1  UNL1        0.0000
     26 C         139.3321  144.6855  164.9384 C.3     1  UNL1        0.0000
     27 C         138.3701  143.9615  164.0437 C.3     1  UNL1        0.0013
     28 C         139.1896  144.3943  164.0699 C.3     1  UNL1        0.0013
     29 C         138.8185  144.5621  165.5136 C.3     1  UNL1        0.0000
     30 C         137.9154  143.8823  164.6735 C.3     1  UNL1        0.0000
@<TRIPOS>BOND
     1    19    20    1
     2    20    18    1
     3    18    17    1
     4    17     1    1
     5     1     2    1
     6     2     3    1
     7     3     4    1
     8     4     7    1
     9     7     8   ar
    10     8     9   ar
    11     9    10   ar
    12    10    11   ar
    13    11    13    1
    14    13    14    1
    15    13    15    1
    16    13    16    1
    17    11    12   ar
    18     4     5   am
    19     5     6    2
    20    20    21    1
    21    22    21    1
    22    22    23    1
    23    23    24    1
    24    25    24    1
    25    25    26    1
    26    26    27    1
    27    25    28    1
    28    28    29    1
    29    28    30    1
    30     5     1   am
    31    27    22    1
    32    12     7   ar
    33    28    22    1
@<TRIPOS>MOLECULE
*****
 30 33 0 0 0
SMALL
GASTEIGER

@<TRIPOS>ATOM
      1 N         142.1539  139.7264  163.3972 N.am    1  UNL1       -0.2606
      2 C         141.9119  141.2063  163.4294 C.3     1  UNL1        0.1169
      3 C         141.7511  141.6187  164.8626 C.3     1  UNL1        0.1212
      4 N         141.8937  140.3936  165.7162 N.am    1  UNL1       -0.2414
      5 C         142.1426  139.2241  164.8106 C.2     1  UNL1        0.3111
      6 O         142.3448  137.8019  165.2424 O.2     1  UNL1       -0.2520
      7 C         141.8032  140.3463  167.2127 C.ar    1  UNL1        0.0553
      8 C         142.6092  139.3416  167.9815 C.ar    1  UNL1        0.0149
      9 C         142.5187  139.2943  169.4780 C.ar    1  UNL1        0.0012
     10 C         141.6222  140.2517  170.2058 C.ar    1  UNL1        0.0039
     11 C         140.8162  141.2564  169.4371 C.ar    1  UNL1        0.0727
     12 C         140.9067  141.3037  167.9405 C.ar    1  UNL1        0.0188
     13 C         139.9196  142.2138  170.1649 C.3     1  UNL1        0.4186
     14 F         139.0232  143.1712  170.8926 F       1  UNL1       -0.1659
     15 F         141.0294  143.2222  170.2051 F       1  UNL1       -0.1659
     16 F         138.8100  141.2054  170.1246 F       1  UNL1       -0.1659
     17 C         142.3694  138.8947  162.1677 C.3     1  UNL1        0.1123
     18 C         141.4814  137.7173  161.8934 C.3     1  UNL1        0.0939
     19 C         139.4884  138.2101  160.3013 C.3     1  UNL1        0.0897
     20 N         140.0111  137.9208  161.6772 N.3     1  UNL1       -0.2701
     21 C         139.0636  137.8352  162.8369 C.3     1  UNL1        0.0721
     22 C         138.6741  139.0783  163.5806 C.3     1  UNL1        0.0147
     23 C         138.4114  140.4239  162.9721 C.3     1  UNL1        0.0013
     24 C         138.0539  141.3712  164.0788 C.3     1  UNL1        0.0000
     25 C         138.0955  140.6110  165.3712 C.3     1  UNL1        0.0000
     26 C         138.3581  139.2653  165.9797 C.3     1  UNL1        0.0000
     27 C         138.7157  138.3180  164.8730 C.3     1  UNL1        0.0013
     28 C         138.4788  139.1939  165.0633 C.3     1  UNL1        0.0013
     29 C         138.4522  138.6610  166.4652 C.3     1  UNL1        0.0000
     30 C         138.7879  137.7716  165.4262 C.3     1  UNL1        0.0000
@<TRIPOS>BOND
     1    19    20    1
     2    20    18    1
     3    18    17    1
     4    17     1    1
     5     1     2    1
     6     2     3    1
     7     3     4    1
     8     4     7    1
     9     7     8   ar
    10     8     9   ar
    11     9    10   ar
    12    10    11   ar
    13    11    13    1
    14    13    14    1
    15    13    15    1
    16    13    16    1
    17    11    12   ar
    18     4     5   am
    19     5     6    2
    20    20    21    1
    21    22    21    1
    22    22    23    1
    23    23    24    1
    24    25    24    1
    25    25    26    1
    26    26    27    1
    27    25    28    1
    28    28    29    1
    29    28    30    1
    30     5     1   am
    31    27    22    1
    32    12     7   ar
    33    28    22    1
@<TRIPOS>MOLECULE
*****
 30 33 0 0 0
SMALL
GASTEIGER

@<TRIPOS>ATOM
      1 N         139.7955  142.7322  161.1518 N.am    1  UNL1       -0.2606
      2 C         138.3423  143.0117  161.3966 C.3     1  UNL1        0.1169
      3 C         137.8222  141.9684  162.3404 C.3     1  UNL1        0.1212
      4 N         138.9539  141.0440  162.6789 N.am    1  UNL1       -0.2414
      5 C         140.1735  141.5160  161.9443 C.2     1  UNL1        0.3111
      6 O         141.5325  140.8831  161.9936 O.2     1  UNL1       -0.2520
      7 C         138.8792  139.8560  163.5918 C.ar    1  UNL1        0.0553
      8 C         139.1887  138.4856  163.0662 C.ar    1  UNL1        0.0149
      9 C         139.1139  137.2977  163.9791 C.ar    1  UNL1        0.0012
     10 C         138.7297  137.4802  165.4175 C.ar    1  UNL1        0.0039
     11 C         138.4201  138.8506  165.9430 C.ar    1  UNL1        0.0727
     12 C         138.4949  140.0385  165.0302 C.ar    1  UNL1        0.0188
     13 C         138.0358  139.0331  167.3815 C.3     1  UNL1        0.4186
     14 F         137.6516  139.2156  168.8199 F       1  UNL1       -0.1659
     15 F         139.0733  140.1073  167.5222 F       1  UNL1       -0.1659
     16 F         136.9985  137.9589  167.2407 F       1  UNL1       -0.1659
     17 C         140.7101  143.5289  160.2695 C.3     1  UNL1        0.1123
     18 C         141.5184  144.6528  160.8470 C.3     1  UNL1        0.0939
     19 C         143.6456  143.6591  161.9594 C.3     1  UNL1        0.0897
     20 N         142.3588  144.4222  162.0679 N.3     1  UNL1       -0.2701
     21 C         141.9123  144.9547  163.3972 C.3     1  UNL1        0.0721
     22 C         141.4006  144.0147  164.4482 C.3     1  UNL1        0.0147
     23 C         142.2018  142.9615  165.1547 C.3     1  UNL1        0.0013
     24 C         141.2942  142.2588  166.1203 C.3     1  UNL1        0.0000
     25 C         139.9322  142.8775  166.0107 C.3     1  UNL1        0.0000
     26 C         139.1311  143.9307  165.3042 C.3     1  UNL1        0.0000
     27 C         140.0386  144.6335  164.3385 C.3     1  UNL1        0.0013
     28 C         139.9980  143.9628  164.9772 C.3     1  UNL1        0.0013
     29 C         138.5678  144.4090  165.0517 C.3     1  UNL1        0.0000
     30 C         139.4199  145.0688  164.1450 C.3     1  UNL1        0.0000
@<TRIPOS>BOND
     1    19    20    1
     2    20    18    1
     3    18    17    1
     4    17     1    1
     5     1     2    1
     6     2     3    1
     7     3     4    1
     8     4     7    1
     9     7     8   ar
    10     8     9   ar
    11     9    10   ar
    12    10    11   ar
    13    11    13    1
    14    13    14    1
    15    13    15    1
    16    13    16    1
    17    11    12   ar
    18     4     5   am
    19     5     6    2
    20    20    21    1
    21    22    21    1
    22    22    23    1
    23    23    24    1
    24    25    24    1
    25    25    26    1
    26    26    27    1
    27    25    28    1
    28    28    29    1
    29    28    30    1
    30     5     1   am
    31    27    22    1
    32    12     7   ar
    33    28    22    1
@<TRIPOS>MOLECULE
*****
 30 33 0 0 0
SMALL
GASTEIGER

@<TRIPOS>ATOM
      1 N         142.1213  139.6026  162.7612 N.am    1  UNL1       -0.2606
      2 C         142.7130  138.4075  163.4478 C.3     1  UNL1        0.1169
      3 C         142.6697  138.6540  164.9268 C.3     1  UNL1        0.1212
      4 N         142.0512  140.0015  165.1542 N.am    1  UNL1       -0.2414
      5 C         141.7122  140.5878  163.8158 C.2     1  UNL1        0.3111
      6 O         141.0760  141.9245  163.5743 O.2     1  UNL1       -0.2520
      7 C         141.8133  140.6490  166.4862 C.ar    1  UNL1        0.0553
      8 C         142.7826  141.6676  167.0087 C.ar    1  UNL1        0.0149
      9 C         142.5447  142.3151  168.3407 C.ar    1  UNL1        0.0012
     10 C         141.3376  141.9441  169.1501 C.ar    1  UNL1        0.0039
     11 C         140.3684  140.9255  168.6276 C.ar    1  UNL1        0.0727
     12 C         140.6062  140.2780  167.2956 C.ar    1  UNL1        0.0188
     13 C         139.1612  140.5544  169.4371 C.3     1  UNL1        0.4186
     14 F         137.9541  140.1834  170.2465 F       1  UNL1       -0.1659
     15 F         139.4768  141.6513  170.4103 F       1  UNL1       -0.1659
     16 F         138.8457  139.4576  168.4637 F       1  UNL1       -0.1659
     17 C         141.9659  139.7812  161.2800 C.3     1  UNL1        0.1123
     18 C         141.3073  138.7113  160.4605 C.3     1  UNL1        0.0939
     19 C         139.2052  139.2373  159.0271 C.3     1  UNL1        0.0897
     20 N         139.8170  138.7076  160.2901 N.3     1  UNL1       -0.2701
     21 C         138.9386  138.1741  161.3827 C.3     1  UNL1        0.0721
     22 C         138.5397  139.0611  162.5247 C.3     1  UNL1        0.0147
     23 C         137.9704  140.4441  162.4098 C.3     1  UNL1        0.0013
     24 C         137.7189  140.9585  163.7962 C.3     1  UNL1        0.0000
     25 C         138.1328  139.8934  164.7680 C.3     1  UNL1        0.0000
     26 C         138.7022  138.5104  164.8829 C.3     1  UNL1        0.0000
     27 C         138.9536  137.9960  163.4964 C.3     1  UNL1        0.0013
     28 C         138.6401  138.7208  163.9821 C.3     1  UNL1        0.0013
     29 C         138.9785  137.8259  165.1374 C.3     1  UNL1        0.0000
     30 C         139.2146  137.3429  163.8357 C.3     1  UNL1        0.0000
@<TRIPOS>BOND
     1    19    20    1
     2    20    18    1
     3    18    17    1
     4    17     1    1
     5     1     2    1
     6     2     3    1
     7     3     4    1
     8     4     7    1
     9     7     8   ar
    10     8     9   ar
    11     9    10   ar
    12    10    11   ar
    13    11    13    1
    14    13    14    1
    15    13    15    1
    16    13    16    1
    17    11    12   ar
    18     4     5   am
    19     5     6    2
    20    20    21    1
    21    22    21    1
    22    22    23    1
    23    23    24    1
    24    25    24    1
    25    25    26    1
    26    26    27    1
    27    25    28    1
    28    28    29    1
    29    28    30    1
    30     5     1   am
    31    27    22    1
    32    12     7   ar
    33    28    22    1
@<TRIPOS>MOLECULE
*****
 30 33 0 0 0
SMALL
GASTEIGER

@<TRIPOS>ATOM
      1 N         139.5098  140.4348  163.7572 N.am    1  UNL1       -0.2606
      2 C         140.4683  141.3776  163.0923 C.3     1  UNL1        0.1169
      3 C         141.2622  142.0638  164.1641 C.3     1  UNL1        0.1212
      4 N         140.7942  141.5451  165.4915 N.am    1  UNL1       -0.2414
      5 C         139.7112  140.5384  165.2400 C.2     1  UNL1        0.3111
      6 O         138.9612  139.7700  166.2874 O.2     1  UNL1       -0.2520
      7 C         141.3175  141.9603  166.8345 C.ar    1  UNL1        0.0553
      8 C         142.7915  141.9219  167.1098 C.ar    1  UNL1        0.0149
      9 C         143.3148  142.3371  168.4529 C.ar    1  UNL1        0.0012
     10 C         142.3640  142.7908  169.5207 C.ar    1  UNL1        0.0039
     11 C         140.8900  142.8293  169.2454 C.ar    1  UNL1        0.0727
     12 C         140.3667  142.4141  167.9023 C.ar    1  UNL1        0.0188
     13 C         139.9392  143.2830  170.3132 C.3     1  UNL1        0.4186
     14 F         138.9884  143.7367  171.3810 F       1  UNL1       -0.1659
     15 F         139.3152  141.9191  170.3370 F       1  UNL1       -0.1659
     16 F         140.5631  144.6468  170.2894 F       1  UNL1       -0.1659
     17 C         138.5230  139.5448  163.0615 C.3     1  UNL1        0.1123
     18 C         138.9570  138.2068  162.5404 C.3     1  UNL1        0.0939
     19 C         140.3668  138.5186  160.3805 C.3     1  UNL1        0.0897
     20 N         140.2597  138.0733  161.8089 N.3     1  UNL1       -0.2701
     21 C         141.4553  137.4945  162.5058 C.3     1  UNL1        0.0721
     22 C         142.5573  138.3959  162.9782 C.3     1  UNL1        0.0147
     23 C         143.4681  139.2072  162.1052 C.3     1  UNL1        0.0013
     24 C         144.4156  139.9569  162.9941 C.3     1  UNL1        0.0000
     25 C         144.0904  139.6090  164.4165 C.3     1  UNL1        0.0000
     26 C         143.1796  138.7977  165.2895 C.3     1  UNL1        0.0000
     27 C         142.2320  138.0479  164.4006 C.3     1  UNL1        0.0013
     28 C         142.9419  138.6442  164.4067 C.3     1  UNL1        0.0013
     29 C         142.8129  138.4580  165.8895 C.3     1  UNL1        0.0000
     30 C         141.9233  137.7541  165.0549 C.3     1  UNL1        0.0000
@<TRIPOS>BOND
     1    19    20    1
     2    20    18    1
     3    18    17    1
     4    17     1    1
     5     1     2    1
     6     2     3    1
     7     3     4    1
     8     4     7    1
     9     7     8   ar
    10     8     9   ar
    11     9    10   ar
    12    10    11   ar
    13    11    13    1
    14    13    14    1
    15    13    15    1
    16    13    16    1
    17    11    12   ar
    18     4     5   am
    19     5     6    2
    20    20    21    1
    21    22    21    1
    22    22    23    1
    23    23    24    1
    24    25    24    1
    25    25    26    1
    26    26    27    1
    27    25    28    1
    28    28    29    1
    29    28    30    1
    30     5     1   am
    31    27    22    1
    32    12     7   ar
    33    28    22    1
@<TRIPOS>MOLECULE
*****
 30 33 0 0 0
SMALL
GASTEIGER

@<TRIPOS>ATOM
      1 N         140.6120  142.3666  163.6729 N.am    1  UNL1       -0.2606
      2 C         141.5834  141.3434  163.1638 C.3     1  UNL1        0.1169
      3 C         142.2770  140.7341  164.3460 C.3     1  UNL1        0.1212
      4 N         141.7342  141.3807  165.5858 N.am    1  UNL1       -0.2414
      5 C         140.7052  142.3897  165.1698 C.2     1  UNL1        0.3111
      6 O         139.9091  143.2676  166.0893 O.2     1  UNL1       -0.2520
      7 C         142.1478  141.0725  166.9944 C.ar    1  UNL1        0.0553
      8 C         142.1642  139.6526  167.4776 C.ar    1  UNL1        0.0149
      9 C         142.5778  139.3444  168.8861 C.ar    1  UNL1        0.0012
     10 C         142.9750  140.4561  169.8114 C.ar    1  UNL1        0.0039
     11 C         142.9586  141.8760  169.3283 C.ar    1  UNL1        0.0727
     12 C         142.5450  142.1842  167.9197 C.ar    1  UNL1        0.0188
     13 C         143.3558  142.9878  170.2536 C.3     1  UNL1        0.4186
     14 F         143.7529  144.0996  171.1790 F       1  UNL1       -0.1659
     15 F         141.9255  143.4330  170.3325 F       1  UNL1       -0.1659
     16 F         144.7860  142.5426  170.1747 F       1  UNL1       -0.1659
     17 C         139.7064  143.2174  162.8327 C.3     1  UNL1        0.1123
     18 C         138.3403  142.7203  162.4626 C.3     1  UNL1        0.0939
     19 C         138.4732  141.0522  160.4752 C.3     1  UNL1        0.0897
     20 N         138.1691  141.3336  161.9169 N.3     1  UNL1       -0.2701
     21 C         137.6939  140.2285  162.8129 C.3     1  UNL1        0.0721
     22 C         138.6608  139.1911  163.3017 C.3     1  UNL1        0.0147
     23 C         139.4671  138.2629  162.4425 C.3     1  UNL1        0.0013
     24 C         140.2957  137.3979  163.3454 C.3     1  UNL1        0.0000
     25 C         140.0015  137.7916  164.7626 C.3     1  UNL1        0.0000
     26 C         139.1952  138.7198  165.6218 C.3     1  UNL1        0.0000
     27 C         138.3665  139.5848  164.7189 C.3     1  UNL1        0.0013
     28 C         138.9910  138.8998  164.7356 C.3     1  UNL1        0.0013
     29 C         138.8691  139.1074  166.2162 C.3     1  UNL1        0.0000
     30 C         138.0911  139.9195  165.3685 C.3     1  UNL1        0.0000
@<TRIPOS>BOND
     1    19    20    1
     2    20    18    1
     3    18    17    1
     4    17     1    1
     5     1     2    1
     6     2     3    1
     7     3     4    1
     8     4     7    1
     9     7     8   ar
    10     8     9   ar
    11     9    10   ar
    12    10    11   ar
    13    11    13    1
    14    13    14    1
    15    13    15    1
    16    13    16    1
    17    11    12   ar
    18     4     5   am
    19     5     6    2
    20    20    21    1
    21    22    21    1
    22    22    23    1
    23    23    24    1
    24    25    24    1
    25    25    26    1
    26    26    27    1
    27    25    28    1
    28    28    29    1
    29    28    30    1
    30     5     1   am
    31    27    22    1
    32    12     7   ar
    33    28    22    1
@<TRIPOS>MOLECULE
*****
 30 33 0 0 0
SMALL
GASTEIGER

@<TRIPOS>ATOM
      1 N         141.8834  141.8535  162.1423 N.am    1  UNL1       -0.2606
      2 C         141.2181  140.5819  161.7061 C.3     1  UNL1        0.1169
      3 C         140.5816  139.9549  162.9110 C.3     1  UNL1        0.1212
      4 N         140.8536  140.8390  164.0918 N.am    1  UNL1       -0.2414
      5 C         141.6581  142.0124  163.6167 C.2     1  UNL1        0.3111
      6 O         142.1509  143.1457  164.4668 O.2     1  UNL1       -0.2520
      7 C         140.4005  140.5929  165.5005 C.ar    1  UNL1        0.0553
      8 C         141.1029  141.2654  166.6425 C.ar    1  UNL1        0.0149
      9 C         140.6499  141.0193  168.0512 C.ar    1  UNL1        0.0012
     10 C         139.4944  140.1007  168.3177 C.ar    1  UNL1        0.0039
     11 C         138.7920  139.4282  167.1756 C.ar    1  UNL1        0.0727
     12 C         139.2451  139.6743  165.7670 C.ar    1  UNL1        0.0188
     13 C         137.6365  138.5096  167.4421 C.3     1  UNL1        0.4186
     14 F         136.4810  137.5910  167.7086 F       1  UNL1       -0.1659
     15 F         137.7584  137.9537  166.0543 F       1  UNL1       -0.1659
     16 F         137.5146  139.0655  168.8300 F       1  UNL1       -0.1659
     17 C         142.6410  142.8000  161.2591 C.3     1  UNL1        0.1123
     18 C         142.1001  144.1737  160.9933 C.3     1  UNL1        0.0939
     19 C         140.1104  144.0452  159.3277 C.3     1  UNL1        0.0897
     20 N         140.6422  144.3609  160.6943 N.3     1  UNL1       -0.2701
     21 C         139.7162  144.8637  161.7618 C.3     1  UNL1        0.0721
     22 C         138.8746  143.8969  162.5410 C.3     1  UNL1        0.0147
     23 C         138.1440  142.7129  161.9802 C.3     1  UNL1        0.0013
     24 C         137.4338  142.0287  163.1105 C.3     1  UNL1        0.0000
     25 C         137.7254  142.7898  164.3697 C.3     1  UNL1        0.0000
     26 C         138.4560  143.9737  164.9305 C.3     1  UNL1        0.0000
     27 C         139.1663  144.6580  163.8003 C.3     1  UNL1        0.0013
     28 C         138.6159  143.9444  164.0178 C.3     1  UNL1        0.0013
     29 C         138.7570  144.5261  165.3932 C.3     1  UNL1        0.0000
     30 C         139.4239  145.1685  164.3321 C.3     1  UNL1        0.0000
@<TRIPOS>BOND
     1    19    20    1
     2    20    18    1
     3    18    17    1
     4    17     1    1
     5     1     2    1
     6     2     3    1
     7     3     4    1
     8     4     7    1
     9     7     8   ar
    10     8     9   ar
    11     9    10   ar
    12    10    11   ar
    13    11    13    1
    14    13    14    1
    15    13    15    1
    16    13    16    1
    17    11    12   ar
    18     4     5   am
    19     5     6    2
    20    20    21    1
    21    22    21    1
    22    22    23    1
    23    23    24    1
    24    25    24    1
    25    25    26    1
    26    26    27    1
    27    25    28    1
    28    28    29    1
    29    28    30    1
    30     5     1   am
    31    27    22    1
    32    12     7   ar
    33    28    22    1
@<TRIPOS>MOLECULE
*****
 30 33 0 0 0
SMALL
GASTEIGER

@<TRIPOS>ATOM
      1 N         140.8807  141.6195  163.0013 N.am    1  UNL1       -0.2606
      2 C         140.1343  142.9122  163.1484 C.3     1  UNL1        0.1169
      3 C         140.2967  143.3828  164.5634 C.3     1  UNL1        0.1212
      4 N         141.1435  142.3809  165.2908 N.am    1  UNL1       -0.2414
      5 C         141.5045  141.2911  164.3254 C.2     1  UNL1        0.3111
      6 O         142.3421  140.0848  164.6304 O.2     1  UNL1       -0.2520
      7 C         141.5568  142.4556  166.7308 C.ar    1  UNL1        0.0553
      8 C         142.9803  142.1835  167.1176 C.ar    1  UNL1        0.0149
      9 C         143.3936  142.2583  168.5577 C.ar    1  UNL1        0.0012
     10 C         142.3835  142.6052  169.6108 C.ar    1  UNL1        0.0039
     11 C         140.9600  142.8773  169.2240 C.ar    1  UNL1        0.0727
     12 C         140.5467  142.8025  167.7840 C.ar    1  UNL1        0.0188
     13 C         139.9497  143.2242  170.2772 C.3     1  UNL1        0.4186
     14 F         138.9396  143.5711  171.3304 F       1  UNL1       -0.1659
     15 F         140.3434  144.6683  170.1790 F       1  UNL1       -0.1659
     16 F         139.5561  141.7801  170.3754 F       1  UNL1       -0.1659
     17 C         140.9851  140.7992  161.7499 C.3     1  UNL1        0.1123
     18 C         142.1585  140.9766  160.8324 C.3     1  UNL1        0.0939
     19 C         141.6382  142.8187  159.0757 C.3     1  UNL1        0.0897
     20 N         142.4481  142.3225  160.2367 N.3     1  UNL1       -0.2701
     21 C         143.5475  143.1720  160.8020 C.3     1  UNL1        0.0721
     22 C         144.2141  142.7786  162.0868 C.3     1  UNL1        0.0147
     23 C         145.0250  141.5375  162.3154 C.3     1  UNL1        0.0013
     24 C         145.4989  141.5491  163.7386 C.3     1  UNL1        0.0000
     25 C         144.9809  142.7973  164.3895 C.3     1  UNL1        0.0000
     26 C         144.1700  144.0384  164.1609 C.3     1  UNL1        0.0000
     27 C         143.6961  144.0268  162.7377 C.3     1  UNL1        0.0013
     28 C         144.1868  143.5572  163.3687 C.3     1  UNL1        0.0013
     29 C         143.7924  144.7181  164.2328 C.3     1  UNL1        0.0000
     30 C         143.3475  144.7073  162.8966 C.3     1  UNL1        0.0000
@<TRIPOS>BOND
     1    19    20    1
     2    20    18    1
     3    18    17    1
     4    17     1    1
     5     1     2    1
     6     2     3    1
     7     3     4    1
     8     4     7    1
     9     7     8   ar
    10     8     9   ar
    11     9    10   ar
    12    10    11   ar
    13    11    13    1
    14    13    14    1
    15    13    15    1
    16    13    16    1
    17    11    12   ar
    18     4     5   am
    19     5     6    2
    20    20    21    1
    21    22    21    1
    22    22    23    1
    23    23    24    1
    24    25    24    1
    25    25    26    1
    26    26    27    1
    27    25    28    1
    28    28    29    1
    29    28    30    1
    30     5     1   am
    31    27    22    1
    32    12     7   ar
    33    28    22    1
@<TRIPOS>MOLECULE
*****
 30 33 0 0 0
SMALL
GASTEIGER

@<TRIPOS>ATOM
      1 N         139.5832  141.5513  162.7592 N.am    1  UNL1       -0.2606
      2 C         141.0526  141.6234  162.4666 C.3     1  UNL1        0.1169
      3 C         141.7922  141.4334  163.7577 C.3     1  UNL1        0.1212
      4 N         140.7799  141.2439  164.8482 N.am    1  UNL1       -0.2414
      5 C         139.4146  141.3168  164.2311 C.2     1  UNL1        0.3111
      6 O         138.1099  141.1793  164.9583 O.2     1  UNL1       -0.2520
      7 C         141.0801  141.0208  166.3009 C.ar    1  UNL1        0.0553
      8 C         142.0359  139.9403  166.7118 C.ar    1  UNL1        0.0149
      9 C         142.3361  139.7171  168.1644 C.ar    1  UNL1        0.0012
     10 C         141.6805  140.5744  169.2061 C.ar    1  UNL1        0.0039
     11 C         140.7247  141.6549  168.7952 C.ar    1  UNL1        0.0727
     12 C         140.4244  141.8781  167.3425 C.ar    1  UNL1        0.0188
     13 C         140.0690  142.5123  169.8369 C.3     1  UNL1        0.4186
     14 F         139.4134  143.3697  170.8785 F       1  UNL1       -0.1659
     15 F         141.0860  143.5874  169.5919 F       1  UNL1       -0.1659
     16 F         139.0521  141.4372  170.0818 F       1  UNL1       -0.1659
     17 C         138.4767  141.6895  161.7561 C.3     1  UNL1        0.1123
     18 C         137.7614  140.4697  161.2554 C.3     1  UNL1        0.0939
     19 C         138.9449  139.5989  159.1127 C.3     1  UNL1        0.0897
     20 N         138.5232  139.3951  160.5378 N.3     1  UNL1       -0.2701
     21 C         138.8633  138.1169  161.2452 C.3     1  UNL1        0.0721
     22 C         140.1439  138.0052  162.0181 C.3     1  UNL1        0.0147
     23 C         141.5284  138.1052  161.4497 C.3     1  UNL1        0.0013
     24 C         142.5050  137.9357  162.5755 C.3     1  UNL1        0.0000
     25 C         141.7241  137.7310  163.8397 C.3     1  UNL1        0.0000
     26 C         140.3396  137.6310  164.4082 C.3     1  UNL1        0.0000
     27 C         139.3629  137.8005  163.2823 C.3     1  UNL1        0.0013
     28 C         140.2649  137.7739  163.4952 C.3     1  UNL1        0.0013
     29 C         139.7181  137.5529  164.8745 C.3     1  UNL1        0.0000
     30 C         138.8011  137.7120  163.8174 C.3     1  UNL1        0.0000
@<TRIPOS>BOND
     1    19    20    1
     2    20    18    1
     3    18    17    1
     4    17     1    1
     5     1     2    1
     6     2     3    1
     7     3     4    1
     8     4     7    1
     9     7     8   ar
    10     8     9   ar
    11     9    10   ar
    12    10    11   ar
    13    11    13    1
    14    13    14    1
    15    13    15    1
    16    13    16    1
    17    11    12   ar
    18     4     5   am
    19     5     6    2
    20    20    21    1
    21    22    21    1
    22    22    23    1
    23    23    24    1
    24    25    24    1
    25    25    26    1
    26    26    27    1
    27    25    28    1
    28    28    29    1
    29    28    30    1
    30     5     1   am
    31    27    22    1
    32    12     7   ar
    33    28    22    1
