@<TRIPOS>MOLECULE
*****
 37 40 0 0 0
SMALL
GASTEIGER

@<TRIPOS>ATOM
      1 C         142.2480  138.3188  158.4416 C.3     1  UNL1        0.0577
      2 C         142.9646  137.6186  159.5579 C.3     1  UNL1        0.0177
      3 C         142.3929  137.6375  160.9445 C.3     1  UNL1        0.0212
      4 C         141.1046  138.3566  161.2149 C.3     1  UNL1        0.0771
      5 C         140.3880  139.0569  160.0986 C.3     1  UNL1        0.0436
      6 C         140.9598  139.0380  158.7119 C.3     1  UNL1        0.0194
      7 N         140.5329  138.3755  162.6015 N.am    1  UNL1       -0.2797
      8 C         139.3507  137.5851  163.0786 C.3     1  UNL1        0.0956
      9 C         139.1301  137.9092  164.5265 C.3     1  UNL1        0.0505
     10 C         140.1760  138.9000  164.9442 C.3     1  UNL1        0.1507
     11 C         141.0430  139.1882  163.7545 C.2     1  UNL1        0.2435
     12 O         142.2144  140.1246  163.7233 O.2     1  UNL1       -0.2731
     13 N         140.3283  139.4976  166.3116 N.am    1  UNL1       -0.2948
     14 C         139.8075  140.8766  166.5896 C.2     1  UNL1        0.2461
     15 O         139.1344  141.6578  165.5004 O.2     1  UNL1       -0.2701
     16 H         140.7701  138.9849  167.0265 H       1  UNL1        0.1501
     17 C         139.9598  141.4741  167.9570 C.ar    1  UNL1        0.0534
     18 C         140.3953  142.9016  168.1073 C.ar    1  UNL1        0.0045
     19 C         140.5476  143.4993  169.4747 C.ar    1  UNL1        0.0001
     20 C         140.2644  142.6694  170.6917 C.ar    1  UNL1        0.0000
     21 C         139.8289  141.2419  170.5414 C.ar    1  UNL1        0.0001
     22 C         139.6766  140.6443  169.1740 C.ar    1  UNL1        0.0045
     23 N         142.8198  138.3000  157.0549 N.3     1  UNL1       -0.2741
     24 C         143.4198  139.5459  156.4740 C.3     1  UNL1        0.0896
     25 C         141.5017  136.2916  156.0654 C.3     1  UNL1        0.0173
     26 C         142.7914  137.0351  156.2492 C.3     1  UNL1        0.0576
     27 C         144.0529  136.5137  155.6271 C.3     1  UNL1        0.0173
     28 C         139.0997  139.7760  160.3689 C.3     1  UNL1        0.1576
     29 S         139.0981  141.0258  161.1983 S.O2    1  UNL1        0.0087
     30 O         137.8822  140.5390  161.9294 O.2     1  UNL1       -0.1686
     31 O         140.3140  141.5125  160.4672 O.2     1  UNL1       -0.1686
     32 C         139.0965  142.2756  162.0279 C.ar    1  UNL1        0.1057
     33 C         137.7966  142.8979  162.4440 C.ar    1  UNL1        0.0183
     34 C         137.7950  144.1476  163.2734 C.ar    1  UNL1        0.0013
     35 C         139.0932  144.7751  163.6868 C.ar    1  UNL1        0.0001
     36 C         140.3930  144.1528  163.2708 C.ar    1  UNL1        0.0013
     37 C         140.3947  142.9031  162.4413 C.ar    1  UNL1        0.0183
@<TRIPOS>BOND
     1    25    26    1
     2    26    27    1
     3    26    23    1
     4    23    24    1
     5     1    23    1
     6     1     2    1
     7     2     3    1
     8     3     4    1
     9     4     7    1
    10     7     8    1
    11     8     9    1
    12     9    10    1
    13    10    13    1
    14    13    14   am
    15    14    15    2
    16    14    17    1
    17    17    18   ar
    18    18    19   ar
    19    19    20   ar
    20    20    21   ar
    21    21    22   ar
    22    10    11    1
    23    11    12    2
    24     4     5    1
    25     5    28    1
    26    28    29    1
    27    29    30    2
    28    29    31    2
    29    29    32    1
    30    32    33   ar
    31    33    34   ar
    32    34    35   ar
    33    35    36   ar
    34    36    37   ar
    35     5     6    1
    36     6     1    1
    37    11     7   am
    38    37    32   ar
    39    22    17   ar
    40    13    16    1
@<TRIPOS>MOLECULE
*****
 37 40 0 0 0
SMALL
GASTEIGER

@<TRIPOS>ATOM
      1 C         139.5159  139.9159  167.6054 C.3     1  UNL1        0.0577
      2 C         138.3238  139.1314  167.1434 C.3     1  UNL1        0.0177
      3 C         138.1034  138.8947  165.6787 C.3     1  UNL1        0.0212
      4 C         139.0751  139.4426  164.6759 C.3     1  UNL1        0.0771
      5 C         140.2672  140.2271  165.1379 C.3     1  UNL1        0.0436
      6 C         140.4875  140.4638  166.6026 C.3     1  UNL1        0.0194
      7 N         138.8547  139.2060  163.2112 N.am    1  UNL1       -0.2797
      8 C         139.4375  138.0858  162.4016 C.3     1  UNL1        0.0956
      9 C         138.9558  138.2355  160.9889 C.3     1  UNL1        0.0505
     10 C         138.0753  139.4482  160.9255 C.3     1  UNL1        0.1507
     11 C         138.0128  140.0480  162.2989 C.2     1  UNL1        0.2435
     12 O         137.2435  141.2745  162.6912 O.2     1  UNL1       -0.2731
     13 N         137.3795  139.9696  159.7032 N.am    1  UNL1       -0.2948
     14 C         138.0957  140.9037  158.7734 C.2     1  UNL1        0.2461
     15 O         139.5079  141.3164  159.0659 O.2     1  UNL1       -0.2701
     16 H         136.4526  139.6987  159.5112 H       1  UNL1        0.1501
     17 C         137.3998  141.4250  157.5512 C.ar    1  UNL1        0.0534
     18 C         136.2902  140.6335  156.9250 C.ar    1  UNL1        0.0045
     19 C         135.5942  141.1548  155.7027 C.ar    1  UNL1        0.0001
     20 C         136.0079  142.4677  155.1067 C.ar    1  UNL1        0.0000
     21 C         137.1176  143.2592  155.7329 C.ar    1  UNL1        0.0001
     22 C         137.8136  142.7378  156.9552 C.ar    1  UNL1        0.0045
     23 N         139.7362  140.1525  169.0701 N.3     1  UNL1       -0.2741
     24 C         138.5690  140.1626  170.0122 C.3     1  UNL1        0.0896
     25 C         141.5586  141.7578  169.9933 C.3     1  UNL1        0.0173
     26 C         141.1238  140.3791  169.5928 C.3     1  UNL1        0.0576
     27 C         142.0767  139.2271  169.7150 C.3     1  UNL1        0.0173
     28 C         141.2389  140.7751  164.1351 C.3     1  UNL1        0.1576
     29 S         140.9281  142.0500  163.4086 S.O2    1  UNL1        0.0087
     30 O         140.6565  142.7298  164.7178 O.2     1  UNL1       -0.1686
     31 O         141.1997  141.3703  162.0994 O.2     1  UNL1       -0.1686
     32 C         140.6172  143.3251  162.6822 C.ar    1  UNL1        0.1057
     33 C         141.3835  143.6895  161.4452 C.ar    1  UNL1        0.0183
     34 C         141.0727  144.9645  160.7188 C.ar    1  UNL1        0.0013
     35 C         139.9956  145.8750  161.2292 C.ar    1  UNL1        0.0001
     36 C         139.2293  145.5106  162.4661 C.ar    1  UNL1        0.0013
     37 C         139.5401  144.2356  163.1926 C.ar    1  UNL1        0.0183
@<TRIPOS>BOND
     1    25    26    1
     2    26    27    1
     3    26    23    1
     4    23    24    1
     5     1    23    1
     6     1     2    1
     7     2     3    1
     8     3     4    1
     9     4     7    1
    10     7     8    1
    11     8     9    1
    12     9    10    1
    13    10    13    1
    14    13    14   am
    15    14    15    2
    16    14    17    1
    17    17    18   ar
    18    18    19   ar
    19    19    20   ar
    20    20    21   ar
    21    21    22   ar
    22    10    11    1
    23    11    12    2
    24     4     5    1
    25     5    28    1
    26    28    29    1
    27    29    30    2
    28    29    31    2
    29    29    32    1
    30    32    33   ar
    31    33    34   ar
    32    34    35   ar
    33    35    36   ar
    34    36    37   ar
    35     5     6    1
    36     6     1    1
    37    11     7   am
    38    37    32   ar
    39    22    17   ar
    40    13    16    1
@<TRIPOS>MOLECULE
*****
 37 40 0 0 0
SMALL
GASTEIGER

@<TRIPOS>ATOM
      1 C         143.8665  141.0510  157.6355 C.3     1  UNL1        0.0577
      2 C         143.9045  142.4332  158.2170 C.3     1  UNL1        0.0177
      3 C         143.9356  142.6203  159.7049 C.3     1  UNL1        0.0212
      4 C         143.9287  141.4253  160.6114 C.3     1  UNL1        0.0771
      5 C         143.8907  140.0431  160.0300 C.3     1  UNL1        0.0436
      6 C         143.8596  139.8560  158.5420 C.3     1  UNL1        0.0194
      7 N         143.9598  141.6124  162.0994 N.am    1  UNL1       -0.2797
      8 C         145.1853  141.5986  162.9643 C.3     1  UNL1        0.0956
      9 C         144.7538  141.8239  164.3832 C.3     1  UNL1        0.0505
     10 C         143.2617  141.9769  164.3952 C.3     1  UNL1        0.1507
     11 C         142.7710  141.8462  162.9837 C.2     1  UNL1        0.2435
     12 O         141.3423  141.9338  162.5353 O.2     1  UNL1       -0.2731
     13 N         142.4098  142.2182  165.6059 N.am    1  UNL1       -0.2948
     14 C         142.1614  141.1065  166.5819 C.2     1  UNL1        0.2461
     15 O         142.7649  139.7535  166.3471 O.2     1  UNL1       -0.2701
     16 H         142.0136  143.1062  165.7601 H       1  UNL1        0.1501
     17 C         141.3095  141.3479  167.7926 C.ar    1  UNL1        0.0534
     18 C         140.5933  140.2032  168.4460 C.ar    1  UNL1        0.0045
     19 C         139.7413  140.4446  169.6569 C.ar    1  UNL1        0.0001
     20 C         139.6056  141.8306  170.2142 C.ar    1  UNL1        0.0000
     21 C         140.3218  142.9752  169.5608 C.ar    1  UNL1        0.0001
     22 C         141.1737  142.7338  168.3500 C.ar    1  UNL1        0.0045
     23 N         143.8354  140.8639  156.1476 N.3     1  UNL1       -0.2741
     24 C         142.6399  141.3118  155.3602 C.3     1  UNL1        0.0896
     25 C         144.9222  138.7955  155.0116 C.3     1  UNL1        0.0173
     26 C         144.9998  140.2288  155.4470 C.3     1  UNL1        0.0576
     27 C         146.2418  141.0271  155.1819 C.3     1  UNL1        0.0173
     28 C         143.8838  138.8480  160.9365 C.3     1  UNL1        0.1576
     29 S         142.6534  138.5127  161.7262 S.O2    1  UNL1        0.0087
     30 O         143.4789  138.4259  162.9756 O.2     1  UNL1       -0.1686
     31 O         141.8279  138.5996  160.4768 O.2     1  UNL1       -0.1686
     32 C         141.4229  138.1774  162.5159 C.ar    1  UNL1        0.1057
     33 C         140.0756  138.2160  161.8577 C.ar    1  UNL1        0.0183
     34 C         138.8452  137.8808  162.6474 C.ar    1  UNL1        0.0013
     35 C         138.9621  137.5069  164.0953 C.ar    1  UNL1        0.0001
     36 C         140.3094  137.4683  164.7535 C.ar    1  UNL1        0.0013
     37 C         141.5398  137.8036  163.9639 C.ar    1  UNL1        0.0183
@<TRIPOS>BOND
     1    25    26    1
     2    26    27    1
     3    26    23    1
     4    23    24    1
     5     1    23    1
     6     1     2    1
     7     2     3    1
     8     3     4    1
     9     4     7    1
    10     7     8    1
    11     8     9    1
    12     9    10    1
    13    10    13    1
    14    13    14   am
    15    14    15    2
    16    14    17    1
    17    17    18   ar
    18    18    19   ar
    19    19    20   ar
    20    20    21   ar
    21    21    22   ar
    22    10    11    1
    23    11    12    2
    24     4     5    1
    25     5    28    1
    26    28    29    1
    27    29    30    2
    28    29    31    2
    29    29    32    1
    30    32    33   ar
    31    33    34   ar
    32    34    35   ar
    33    35    36   ar
    34    36    37   ar
    35     5     6    1
    36     6     1    1
    37    11     7   am
    38    37    32   ar
    39    22    17   ar
    40    13    16    1
@<TRIPOS>MOLECULE
*****
 37 40 0 0 0
SMALL
GASTEIGER

@<TRIPOS>ATOM
      1 C         140.0624  144.2974  158.2996 C.3     1  UNL1        0.0577
      2 C         140.6690  145.3115  159.2235 C.3     1  UNL1        0.0177
      3 C         140.4571  145.1987  160.7041 C.3     1  UNL1        0.0212
      4 C         139.6385  144.0719  161.2610 C.3     1  UNL1        0.0771
      5 C         139.0318  143.0578  160.3371 C.3     1  UNL1        0.0436
      6 C         139.2438  143.1706  158.8564 C.3     1  UNL1        0.0194
      7 N         139.4265  143.9592  162.7416 N.am    1  UNL1       -0.2797
      8 C         138.1932  144.3708  163.4896 C.3     1  UNL1        0.0956
      9 C         138.4151  144.0810  164.9446 C.3     1  UNL1        0.0505
     10 C         139.7856  143.4903  165.0958 C.3     1  UNL1        0.1507
     11 C         140.4106  143.4150  163.7343 C.2     1  UNL1        0.2435
     12 O         141.7795  142.8880  163.4206 O.2     1  UNL1       -0.2731
     13 N         140.4197  143.0519  166.3825 N.am    1  UNL1       -0.2948
     14 C         140.5432  141.5906  166.6981 C.2     1  UNL1        0.2461
     15 O         140.0326  140.5678  165.7270 O.2     1  UNL1       -0.2701
     16 H         140.7548  143.7232  167.0199 H       1  UNL1        0.1501
     17 C         141.1773  141.1523  167.9848 C.ar    1  UNL1        0.0534
     18 C         142.5428  141.6502  168.3557 C.ar    1  UNL1        0.0045
     19 C         143.1769  141.2118  169.6426 C.ar    1  UNL1        0.0001
     20 C         142.4456  140.2756  170.5584 C.ar    1  UNL1        0.0000
     21 C         141.0801  139.7778  170.1874 C.ar    1  UNL1        0.0001
     22 C         140.4459  140.2161  168.9006 C.ar    1  UNL1        0.0045
     23 N         140.2743  144.4101  156.8190 N.3     1  UNL1       -0.2741
     24 C         141.3438  143.5982  156.1504 C.3     1  UNL1        0.0896
     25 C         138.1825  144.8142  155.3320 C.3     1  UNL1        0.0173
     26 C         139.4168  145.3348  156.0068 C.3     1  UNL1        0.0576
     27 C         139.7937  146.7803  155.8695 C.3     1  UNL1        0.0173
     28 C         138.2132  141.9309  160.8939 C.3     1  UNL1        0.1576
     29 S         138.8867  140.7936  161.6029 S.O2    1  UNL1        0.0087
     30 O         137.9002  140.9098  162.7267 O.2     1  UNL1       -0.1686
     31 O         139.8733  140.6773  160.4791 O.2     1  UNL1       -0.1686
     32 C         139.5603  139.6562  162.3120 C.ar    1  UNL1        0.1057
     33 C         141.0565  139.5492  162.3058 C.ar    1  UNL1        0.0183
     34 C         141.7301  138.4119  163.0148 C.ar    1  UNL1        0.0013
     35 C         140.9075  137.3815  163.7300 C.ar    1  UNL1        0.0001
     36 C         139.4113  137.4884  163.7362 C.ar    1  UNL1        0.0013
     37 C         138.7377  138.6258  163.0272 C.ar    1  UNL1        0.0183
@<TRIPOS>BOND
     1    25    26    1
     2    26    27    1
     3    26    23    1
     4    23    24    1
     5     1    23    1
     6     1     2    1
     7     2     3    1
     8     3     4    1
     9     4     7    1
    10     7     8    1
    11     8     9    1
    12     9    10    1
    13    10    13    1
    14    13    14   am
    15    14    15    2
    16    14    17    1
    17    17    18   ar
    18    18    19   ar
    19    19    20   ar
    20    20    21   ar
    21    21    22   ar
    22    10    11    1
    23    11    12    2
    24     4     5    1
    25     5    28    1
    26    28    29    1
    27    29    30    2
    28    29    31    2
    29    29    32    1
    30    32    33   ar
    31    33    34   ar
    32    34    35   ar
    33    35    36   ar
    34    36    37   ar
    35     5     6    1
    36     6     1    1
    37    11     7   am
    38    37    32   ar
    39    22    17   ar
    40    13    16    1
@<TRIPOS>MOLECULE
*****
 37 40 0 0 0
SMALL
GASTEIGER

@<TRIPOS>ATOM
      1 C         141.8981  138.7058  157.9987 C.3     1  UNL1        0.0577
      2 C         140.5116  138.3933  158.4780 C.3     1  UNL1        0.0177
      3 C         140.2242  138.3240  159.9486 C.3     1  UNL1        0.0212
      4 C         141.3233  138.5672  160.9398 C.3     1  UNL1        0.0771
      5 C         142.7099  138.8797  160.4605 C.3     1  UNL1        0.0436
      6 C         142.9973  138.9490  158.9899 C.3     1  UNL1        0.0194
      7 N         141.0359  138.4979  162.4104 N.am    1  UNL1       -0.2797
      8 C         141.1393  137.2745  163.2723 C.3     1  UNL1        0.0956
      9 C         140.7620  137.6603  164.6719 C.3     1  UNL1        0.0505
     10 C         140.4254  139.1220  164.6750 C.3     1  UNL1        0.1507
     11 C         140.5947  139.6397  163.2773 C.2     1  UNL1        0.2435
     12 O         140.3635  141.0513  162.8259 O.2     1  UNL1       -0.2731
     13 N         139.9951  139.9252  165.8665 N.am    1  UNL1       -0.2948
     14 C         141.0075  140.3553  166.8864 C.2     1  UNL1        0.2461
     15 O         142.4501  139.9823  166.7148 O.2     1  UNL1       -0.2701
     16 H         139.0482  140.1700  165.9792 H       1  UNL1        0.1501
     17 C         140.5771  141.1584  168.0779 C.ar    1  UNL1        0.0534
     18 C         139.7651  140.5148  169.1626 C.ar    1  UNL1        0.0045
     19 C         139.3347  141.3179  170.3541 C.ar    1  UNL1        0.0001
     20 C         139.7162  142.7646  170.4610 C.ar    1  UNL1        0.0000
     21 C         140.5282  143.4083  169.3764 C.ar    1  UNL1        0.0001
     22 C         140.9586  142.6051  168.1848 C.ar    1  UNL1        0.0045
     23 N         142.1855  138.7752  156.5281 N.3     1  UNL1       -0.2741
     24 C         141.3791  139.6838  155.6483 C.3     1  UNL1        0.0896
     25 C         143.2985  136.4546  156.1728 C.3     1  UNL1        0.0173
     26 C         143.2793  137.9359  155.9373 C.3     1  UNL1        0.0576
     27 C         144.3541  138.5779  155.1109 C.3     1  UNL1        0.0173
     28 C         143.8091  139.1229  161.4518 C.3     1  UNL1        0.1576
     29 S         143.8847  140.4309  162.1821 S.O2    1  UNL1        0.0087
     30 O         144.0020  139.6968  163.4848 O.2     1  UNL1       -0.1686
     31 O         143.7673  141.1650  160.8793 O.2     1  UNL1       -0.1686
     32 C         143.9602  141.7390  162.9124 C.ar    1  UNL1        0.1057
     33 C         143.5909  143.0122  162.2106 C.ar    1  UNL1        0.0183
     34 C         143.6664  144.3202  162.9408 C.ar    1  UNL1        0.0013
     35 C         144.1112  144.3551  164.3729 C.ar    1  UNL1        0.0001
     36 C         144.4805  143.0818  165.0747 C.ar    1  UNL1        0.0013
     37 C         144.4050  141.7738  164.3445 C.ar    1  UNL1        0.0183
@<TRIPOS>BOND
     1    25    26    1
     2    26    27    1
     3    26    23    1
     4    23    24    1
     5     1    23    1
     6     1     2    1
     7     2     3    1
     8     3     4    1
     9     4     7    1
    10     7     8    1
    11     8     9    1
    12     9    10    1
    13    10    13    1
    14    13    14   am
    15    14    15    2
    16    14    17    1
    17    17    18   ar
    18    18    19   ar
    19    19    20   ar
    20    20    21   ar
    21    21    22   ar
    22    10    11    1
    23    11    12    2
    24     4     5    1
    25     5    28    1
    26    28    29    1
    27    29    30    2
    28    29    31    2
    29    29    32    1
    30    32    33   ar
    31    33    34   ar
    32    34    35   ar
    33    35    36   ar
    34    36    37   ar
    35     5     6    1
    36     6     1    1
    37    11     7   am
    38    37    32   ar
    39    22    17   ar
    40    13    16    1
@<TRIPOS>MOLECULE
*****
 37 40 0 0 0
SMALL
GASTEIGER

@<TRIPOS>ATOM
      1 C         139.8142  139.5265  157.6679 C.3     1  UNL1        0.0577
      2 C         138.5498  139.9828  158.3335 C.3     1  UNL1        0.0177
      3 C         138.3716  139.7985  159.8115 C.3     1  UNL1        0.0212
      4 C         139.4577  139.1580  160.6238 C.3     1  UNL1        0.0771
      5 C         140.7221  138.7017  159.9581 C.3     1  UNL1        0.0436
      6 C         140.9003  138.8859  158.4802 C.3     1  UNL1        0.0194
      7 N         139.2795  138.9737  162.1017 N.am    1  UNL1       -0.2797
      8 C         139.0992  137.6647  162.8116 C.3     1  UNL1        0.0956
      9 C         138.9586  137.9480  164.2779 C.3     1  UNL1        0.0505
     10 C         139.0520  139.4322  164.4742 C.3     1  UNL1        0.1507
     11 C         139.2503  140.0661  163.1292 C.2     1  UNL1        0.2435
     12 O         139.3942  141.5345  162.8593 O.2     1  UNL1       -0.2731
     13 N         138.9627  140.1555  165.7852 N.am    1  UNL1       -0.2948
     14 C         140.2145  140.5295  166.5223 C.2     1  UNL1        0.2461
     15 O         141.5555  140.1800  165.9484 O.2     1  UNL1       -0.2701
     16 H         138.0825  140.3849  166.1620 H       1  UNL1        0.1501
     17 C         140.1251  141.2527  167.8333 C.ar    1  UNL1        0.0534
     18 C         140.5790  142.6788  167.9355 C.ar    1  UNL1        0.0045
     19 C         140.4896  143.4022  169.2466 C.ar    1  UNL1        0.0001
     20 C         139.9464  142.6995  170.4554 C.ar    1  UNL1        0.0000
     21 C         139.4926  141.2735  170.3532 C.ar    1  UNL1        0.0001
     22 C         139.5819  140.5501  169.0421 C.ar    1  UNL1        0.0045
     23 N         139.9924  139.7107  156.1900 N.3     1  UNL1       -0.2741
     24 C         140.0660  141.0920  155.6099 C.3     1  UNL1        0.0896
     25 C         141.4098  138.1664  154.6551 C.3     1  UNL1        0.0173
     26 C         140.0970  138.5137  155.2921 C.3     1  UNL1        0.0576
     27 C         138.8887  137.6639  155.0313 C.3     1  UNL1        0.0173
     28 C         141.8084  138.0611  160.7705 C.3     1  UNL1        0.1576
     29 S         142.7868  138.9153  161.5207 S.O2    1  UNL1        0.0087
     30 O         143.0429  139.7141  160.2773 O.2     1  UNL1       -0.1686
     31 O         142.5306  138.1165  162.7642 O.2     1  UNL1       -0.1686
     32 C         143.7652  139.7697  162.2710 C.ar    1  UNL1        0.1057
     33 C         144.2746  139.3267  163.6106 C.ar    1  UNL1        0.0183
     34 C         145.2530  140.1809  164.3608 C.ar    1  UNL1        0.0013
     35 C         145.7220  141.4781  163.7716 C.ar    1  UNL1        0.0001
     36 C         145.2126  141.9211  162.4321 C.ar    1  UNL1        0.0013
     37 C         144.2342  141.0669  161.6818 C.ar    1  UNL1        0.0183
@<TRIPOS>BOND
     1    25    26    1
     2    26    27    1
     3    26    23    1
     4    23    24    1
     5     1    23    1
     6     1     2    1
     7     2     3    1
     8     3     4    1
     9     4     7    1
    10     7     8    1
    11     8     9    1
    12     9    10    1
    13    10    13    1
    14    13    14   am
    15    14    15    2
    16    14    17    1
    17    17    18   ar
    18    18    19   ar
    19    19    20   ar
    20    20    21   ar
    21    21    22   ar
    22    10    11    1
    23    11    12    2
    24     4     5    1
    25     5    28    1
    26    28    29    1
    27    29    30    2
    28    29    31    2
    29    29    32    1
    30    32    33   ar
    31    33    34   ar
    32    34    35   ar
    33    35    36   ar
    34    36    37   ar
    35     5     6    1
    36     6     1    1
    37    11     7   am
    38    37    32   ar
    39    22    17   ar
    40    13    16    1
@<TRIPOS>MOLECULE
*****
 37 40 0 0 0
SMALL
GASTEIGER

@<TRIPOS>ATOM
      1 C         139.4394  139.7744  167.8825 C.3     1  UNL1        0.0577
      2 C         138.1216  139.2256  167.4218 C.3     1  UNL1        0.0177
      3 C         137.8875  138.9618  165.9639 C.3     1  UNL1        0.0212
      4 C         138.9710  139.2469  164.9666 C.3     1  UNL1        0.0771
      5 C         140.2888  139.7957  165.4273 C.3     1  UNL1        0.0436
      6 C         140.5230  140.0595  166.8852 C.3     1  UNL1        0.0194
      7 N         138.7368  138.9831  163.5087 N.am    1  UNL1       -0.2797
      8 C         139.0469  137.7078  162.7825 C.3     1  UNL1        0.0956
      9 C         138.6532  137.8848  161.3459 C.3     1  UNL1        0.0505
     10 C         138.0998  139.2696  161.1843 C.3     1  UNL1        0.1507
     11 C         138.1515  139.9484  162.5209 C.2     1  UNL1        0.2435
     12 O         137.6976  141.3469  162.8177 O.2     1  UNL1       -0.2731
     13 N         137.5851  139.8702  159.9098 N.am    1  UNL1       -0.2948
     14 C         138.5228  140.1197  158.7659 C.2     1  UNL1        0.2461
     15 O         139.9752  139.7685  158.8964 O.2     1  UNL1       -0.2701
     16 H         136.6318  140.1007  159.8241 H       1  UNL1        0.1501
     17 C         138.0080  140.7202  157.4915 C.ar    1  UNL1        0.0534
     18 C         136.5323  140.7667  157.2268 C.ar    1  UNL1        0.0045
     19 C         136.0174  141.3674  155.9523 C.ar    1  UNL1        0.0001
     20 C         136.9783  141.9215  154.9425 C.ar    1  UNL1        0.0000
     21 C         138.4540  141.8750  155.2072 C.ar    1  UNL1        0.0001
     22 C         138.9689  141.2744  156.4817 C.ar    1  UNL1        0.0045
     23 N         139.6736  140.0381  169.3404 N.3     1  UNL1       -0.2741
     24 C         138.5127  140.0921  170.2888 C.3     1  UNL1        0.0896
     25 C         141.5478  141.6314  170.1763 C.3     1  UNL1        0.0173
     26 C         141.0686  140.2480  169.8500 C.3     1  UNL1        0.0576
     27 C         141.9846  139.0743  170.0334 C.3     1  UNL1        0.0173
     28 C         141.3724  140.0808  164.4300 C.3     1  UNL1        0.1576
     29 S         142.0515  141.4183  164.4221 S.O2    1  UNL1        0.0087
     30 O         140.7445  142.0799  164.0995 O.2     1  UNL1       -0.1686
     31 O         143.3584  140.7566  164.7447 O.2     1  UNL1       -0.1686
     32 C         142.7305  142.7558  164.4142 C.ar    1  UNL1        0.1057
     33 C         143.8670  143.0255  165.3552 C.ar    1  UNL1        0.0183
     34 C         144.5461  144.3629  165.3473 C.ar    1  UNL1        0.0013
     35 C         144.0885  145.4307  164.3984 C.ar    1  UNL1        0.0001
     36 C         142.9519  145.1611  163.4574 C.ar    1  UNL1        0.0013
     37 C         142.2729  143.8236  163.4653 C.ar    1  UNL1        0.0183
@<TRIPOS>BOND
     1    25    26    1
     2    26    27    1
     3    26    23    1
     4    23    24    1
     5     1    23    1
     6     1     2    1
     7     2     3    1
     8     3     4    1
     9     4     7    1
    10     7     8    1
    11     8     9    1
    12     9    10    1
    13    10    13    1
    14    13    14   am
    15    14    15    2
    16    14    17    1
    17    17    18   ar
    18    18    19   ar
    19    19    20   ar
    20    20    21   ar
    21    21    22   ar
    22    10    11    1
    23    11    12    2
    24     4     5    1
    25     5    28    1
    26    28    29    1
    27    29    30    2
    28    29    31    2
    29    29    32    1
    30    32    33   ar
    31    33    34   ar
    32    34    35   ar
    33    35    36   ar
    34    36    37   ar
    35     5     6    1
    36     6     1    1
    37    11     7   am
    38    37    32   ar
    39    22    17   ar
    40    13    16    1
@<TRIPOS>MOLECULE
*****
 37 40 0 0 0
SMALL
GASTEIGER

@<TRIPOS>ATOM
      1 C         140.9099  138.3196  157.9273 C.3     1  UNL1        0.0577
      2 C         142.2352  138.0326  158.5686 C.3     1  UNL1        0.0177
      3 C         142.3637  138.0452  160.0630 C.3     1  UNL1        0.0212
      4 C         141.1669  138.3447  160.9162 C.3     1  UNL1        0.0771
      5 C         139.8416  138.6316  160.2750 C.3     1  UNL1        0.0436
      6 C         139.7131  138.6191  158.7806 C.3     1  UNL1        0.0194
      7 N         141.2955  138.3572  162.4106 N.am    1  UNL1       -0.2797
      8 C         140.9689  137.2205  163.3332 C.3     1  UNL1        0.0956
      9 C         141.2448  137.6694  164.7377 C.3     1  UNL1        0.0505
     10 C         141.7418  139.0836  164.6831 C.3     1  UNL1        0.1507
     11 C         141.7731  139.5087  163.2449 C.2     1  UNL1        0.2435
     12 O         142.2061  140.8498  162.7312 O.2     1  UNL1       -0.2731
     13 N         142.1380  139.9250  165.8599 N.am    1  UNL1       -0.2948
     14 C         141.0939  140.6819  166.6262 C.2     1  UNL1        0.2461
     15 O         139.6537  140.5974  166.2155 O.2     1  UNL1       -0.2701
     16 H         143.0832  139.9805  166.1295 H       1  UNL1        0.1501
     17 C         141.4901  141.5233  167.8030 C.ar    1  UNL1        0.0534
     18 C         142.8942  141.4653  168.3276 C.ar    1  UNL1        0.0045
     19 C         143.2905  142.3068  169.5045 C.ar    1  UNL1        0.0001
     20 C         142.2827  143.2060  170.1568 C.ar    1  UNL1        0.0000
     21 C         140.8786  143.2640  169.6323 C.ar    1  UNL1        0.0001
     22 C         140.4823  142.4226  168.4553 C.ar    1  UNL1        0.0045
     23 N         140.7813  138.3070  156.4329 N.3     1  UNL1       -0.2741
     24 C         141.1558  137.0784  155.6582 C.3     1  UNL1        0.0896
     25 C         138.8099  139.6878  155.4546 C.3     1  UNL1        0.0173
     26 C         140.2783  139.5231  155.7132 C.3     1  UNL1        0.0576
     27 C         141.2436  140.5746  155.2520 C.3     1  UNL1        0.0173
     28 C         138.6448  138.9311  161.1282 C.3     1  UNL1        0.1576
     29 S         138.5131  140.2697  161.7922 S.O2    1  UNL1        0.0087
     30 O         138.8207  140.9462  160.4892 O.2     1  UNL1       -0.1686
     31 O         138.2055  139.5932  163.0951 O.2     1  UNL1       -0.1686
     32 C         138.3814  141.6084  162.4561 C.ar    1  UNL1        0.1057
     33 C         137.6612  141.7280  163.7664 C.ar    1  UNL1        0.0183
     34 C         137.5295  143.0666  164.4303 C.ar    1  UNL1        0.0013
     35 C         138.1180  144.2855  163.7839 C.ar    1  UNL1        0.0001
     36 C         138.8382  144.1658  162.4736 C.ar    1  UNL1        0.0013
     37 C         138.9699  142.8273  161.8097 C.ar    1  UNL1        0.0183
@<TRIPOS>BOND
     1    25    26    1
     2    26    27    1
     3    26    23    1
     4    23    24    1
     5     1    23    1
     6     1     2    1
     7     2     3    1
     8     3     4    1
     9     4     7    1
    10     7     8    1
    11     8     9    1
    12     9    10    1
    13    10    13    1
    14    13    14   am
    15    14    15    2
    16    14    17    1
    17    17    18   ar
    18    18    19   ar
    19    19    20   ar
    20    20    21   ar
    21    21    22   ar
    22    10    11    1
    23    11    12    2
    24     4     5    1
    25     5    28    1
    26    28    29    1
    27    29    30    2
    28    29    31    2
    29    29    32    1
    30    32    33   ar
    31    33    34   ar
    32    34    35   ar
    33    35    36   ar
    34    36    37   ar
    35     5     6    1
    36     6     1    1
    37    11     7   am
    38    37    32   ar
    39    22    17   ar
    40    13    16    1
@<TRIPOS>MOLECULE
*****
 37 40 0 0 0
SMALL
GASTEIGER

@<TRIPOS>ATOM
      1 C         139.4212  142.7196  158.0088 C.3     1  UNL1        0.0577
      2 C         139.9663  143.9790  158.6142 C.3     1  UNL1        0.0177
      3 C         139.8116  144.2325  160.0845 C.3     1  UNL1        0.0212
      4 C         139.1116  143.2266  160.9494 C.3     1  UNL1        0.0771
      5 C         138.5664  141.9671  160.3439 C.3     1  UNL1        0.0436
      6 C         138.7212  141.7137  158.8736 C.3     1  UNL1        0.0194
      7 N         138.9568  143.4801  162.4197 N.am    1  UNL1       -0.2797
      8 C         137.7258  144.0020  163.0996 C.3     1  UNL1        0.0956
      9 C         138.0140  144.1006  164.5684 C.3     1  UNL1        0.0505
     10 C         139.4232  143.6397  164.7962 C.3     1  UNL1        0.1507
     11 C         140.0058  143.2562  163.4682 C.2     1  UNL1        0.2435
     12 O         141.3938  142.7394  163.2306 O.2     1  UNL1       -0.2731
     13 N         140.1262  143.5738  166.1195 N.am    1  UNL1       -0.2948
     14 C         140.2991  142.2545  166.8122 C.2     1  UNL1        0.2461
     15 O         139.7689  141.0012  166.1814 O.2     1  UNL1       -0.2701
     16 H         140.4742  144.3964  166.5335 H       1  UNL1        0.1501
     17 C         141.0021  142.1887  168.1355 C.ar    1  UNL1        0.0534
     18 C         140.2065  142.0910  169.4034 C.ar    1  UNL1        0.0045
     19 C         140.9096  142.0252  170.7268 C.ar    1  UNL1        0.0001
     20 C         142.4082  142.0572  170.7824 C.ar    1  UNL1        0.0000
     21 C         143.2038  142.1549  169.5145 C.ar    1  UNL1        0.0001
     22 C         142.5007  142.2207  168.1911 C.ar    1  UNL1        0.0045
     23 N         139.5759  142.4661  156.5385 N.3     1  UNL1       -0.2741
     24 C         140.0513  143.5642  155.6340 C.3     1  UNL1        0.0896
     25 C         140.2954  140.0336  155.9771 C.3     1  UNL1        0.0173
     26 C         139.2554  141.1145  155.9726 C.3     1  UNL1        0.0576
     27 C         137.8947  140.8436  155.4022 C.3     1  UNL1        0.0173
     28 C         137.8664  140.9611  161.2088 C.3     1  UNL1        0.1576
     29 S         138.6650  140.0176  162.0585 S.O2    1  UNL1        0.0087
     30 O         137.8188  140.3705  163.2457 O.2     1  UNL1       -0.1686
     31 O         139.5112  139.6648  160.8714 O.2     1  UNL1       -0.1686
     32 C         139.4636  139.0741  162.9083 C.ar    1  UNL1        0.1057
     33 C         138.8132  138.3710  164.0627 C.ar    1  UNL1        0.0183
     34 C         139.6117  137.4275  164.9125 C.ar    1  UNL1        0.0013
     35 C         141.0606  137.1871  164.6078 C.ar    1  UNL1        0.0001
     36 C         141.7110  137.8902  163.4534 C.ar    1  UNL1        0.0013
     37 C         140.9125  138.8337  162.6036 C.ar    1  UNL1        0.0183
@<TRIPOS>BOND
     1    25    26    1
     2    26    27    1
     3    26    23    1
     4    23    24    1
     5     1    23    1
     6     1     2    1
     7     2     3    1
     8     3     4    1
     9     4     7    1
    10     7     8    1
    11     8     9    1
    12     9    10    1
    13    10    13    1
    14    13    14   am
    15    14    15    2
    16    14    17    1
    17    17    18   ar
    18    18    19   ar
    19    19    20   ar
    20    20    21   ar
    21    21    22   ar
    22    10    11    1
    23    11    12    2
    24     4     5    1
    25     5    28    1
    26    28    29    1
    27    29    30    2
    28    29    31    2
    29    29    32    1
    30    32    33   ar
    31    33    34   ar
    32    34    35   ar
    33    35    36   ar
    34    36    37   ar
    35     5     6    1
    36     6     1    1
    37    11     7   am
    38    37    32   ar
    39    22    17   ar
    40    13    16    1
