@<TRIPOS>MOLECULE
*****
 32 35 0 0 0
SMALL
GASTEIGER

@<TRIPOS>ATOM
      1 N         139.7851  139.6201  164.1995 N.3     1  UNL1       -0.2647
      2 C         138.4374  140.1646  163.8293 C.3     1  UNL1        0.1037
      3 C         138.2769  140.9877  162.5856 C.3     1  UNL1        0.1470
      4 C         138.1164  141.8109  161.3419 C.3     1  UNL1        0.1035
      5 N         139.3037  142.0895  160.4685 N.3     1  UNL1       -0.2673
      6 C         140.6514  141.5449  160.8389 C.3     1  UNL1        0.1035
      7 C         140.8119  140.7218  162.0825 C.3     1  UNL1        0.1470
      8 C         140.9723  139.8987  163.3261 C.3     1  UNL1        0.1037
      9 O         139.4642  141.2663  161.7122 O.3     1  UNL1       -0.3530
     10 C         139.9456  138.7969  165.4432 C.3     1  UNL1        0.0993
     11 C         140.9316  140.7955  169.3526 C.ar    1  UNL1        0.0684
     12 C         139.5078  140.4615  169.0192 C.ar    1  UNL1        0.0100
     13 C         139.1791  139.7952  167.7161 C.ar    1  UNL1       -0.0022
     14 C         140.2742  139.4631  166.7463 C.ar    1  UNL1       -0.0061
     15 C         141.6981  139.7972  167.0798 C.ar    1  UNL1       -0.0022
     16 C         142.0267  140.4634  168.3829 C.ar    1  UNL1        0.0100
     17 N         141.5888  142.1280  171.9589 N.1     1  UNL1       -0.1908
     18 C         141.2602  141.4617  170.6557 C.1     1  UNL1        0.1004
     19 C         139.1432  142.9126  159.2249 C.3     1  UNL1        0.0913
     20 C         140.0924  144.0397  158.9438 C.3     1  UNL1        0.1084
     21 N         139.8893  145.3727  159.6007 N.3     1  UNL1       -0.1816
     22 H         138.8844  145.5477  159.6073 H       1  UNL1        0.1485
     23 S         140.3778  145.6012  161.0004 S.O2    1  UNL1        0.0451
     24 O         139.0924  146.2979  161.3353 O.2     1  UNL1       -0.1572
     25 O         141.6632  144.9045  160.6655 O.2     1  UNL1       -0.1572
     26 C         140.8664  145.8297  162.4001 C.3     1  UNL1        0.1952
     27 C         140.5067  144.8611  163.4875 C.ar    1  UNL1        0.0029
     28 C         141.5701  144.0098  164.1156 C.ar    1  UNL1       -0.0025
     29 C         141.2104  143.0412  165.2030 C.ar    1  UNL1       -0.0003
     30 C         139.7872  142.9239  165.6623 C.ar    1  UNL1       -0.0000
     31 C         138.7239  143.7752  165.0342 C.ar    1  UNL1       -0.0003
     32 C         139.0836  144.7438  163.9469 C.ar    1  UNL1       -0.0025
@<TRIPOS>BOND
     1    17    18    3
     2    18    11    1
     3    11    12   ar
     4    12    13   ar
     5    13    14   ar
     6    14    10    1
     7    10     1    1
     8     1     2    1
     9     2     3    1
    10     3     4    1
    11     4     5    1
    12     5    19    1
    13    19    20    1
    14    20    21    1
    15    21    23    1
    16    23    24    2
    17    23    25    2
    18    23    26    1
    19    26    27    1
    20    27    28   ar
    21    28    29   ar
    22    29    30   ar
    23    30    31   ar
    24    31    32   ar
    25     5     6    1
    26     6     7    1
    27     7     8    1
    28     7     9    1
    29    14    15   ar
    30    15    16   ar
    31    16    11   ar
    32     8     1    1
    33     9     3    1
    34    32    27   ar
    35    21    22    1
@<TRIPOS>MOLECULE
*****
 32 35 0 0 0
SMALL
GASTEIGER

@<TRIPOS>ATOM
      1 N         141.8058  139.6519  164.0774 N.3     1  UNL1       -0.2647
      2 C         143.0785  140.3413  163.6840 C.3     1  UNL1        0.1037
      3 C         143.1238  141.1802  162.4413 C.3     1  UNL1        0.1470
      4 C         143.1692  142.0192  161.1987 C.3     1  UNL1        0.1035
      5 N         141.9418  142.1687  160.3495 N.3     1  UNL1       -0.2673
      6 C         140.6690  141.4792  160.7429 C.3     1  UNL1        0.1035
      7 C         140.6237  140.6403  161.9855 C.3     1  UNL1        0.1470
      8 C         140.5784  139.8014  163.2281 C.3     1  UNL1        0.1037
      9 O         141.8964  141.3297  161.5921 O.3     1  UNL1       -0.3530
     10 C         141.7604  138.8129  165.3200 C.3     1  UNL1        0.0993
     11 C         141.0490  140.7510  169.3185 C.ar    1  UNL1        0.0684
     12 C         142.4260  140.2896  168.9431 C.ar    1  UNL1        0.0100
     13 C         142.6632  139.6436  167.6102 C.ar    1  UNL1       -0.0022
     14 C         141.5233  139.4589  166.6528 C.ar    1  UNL1       -0.0061
     15 C         140.1463  139.9204  167.0283 C.ar    1  UNL1       -0.0022
     16 C         139.9092  140.5664  168.3611 C.ar    1  UNL1        0.0100
     17 N         140.5748  142.0430  171.9842 N.1     1  UNL1       -0.1908
     18 C         140.8119  141.3970  170.6513 C.1     1  UNL1        0.1004
     19 C         141.9871  143.0076  159.1068 C.3     1  UNL1        0.0913
     20 C         141.4007  144.3882  159.1122 C.3     1  UNL1        0.1084
     21 N         141.6566  145.3073  160.2697 N.3     1  UNL1       -0.1816
     22 H         141.8182  146.2354  159.8786 H       1  UNL1        0.1485
     23 S         140.6230  145.4646  161.3452 S.O2    1  UNL1        0.0451
     24 O         139.6202  145.8992  160.3178 O.2     1  UNL1       -0.1572
     25 O         141.6258  145.0299  162.3725 O.2     1  UNL1       -0.1572
     26 C         139.5893  145.6218  162.4208 C.3     1  UNL1        0.1952
     27 C         139.0617  144.4137  163.1363 C.ar    1  UNL1        0.0029
     28 C         139.5474  144.0885  164.5178 C.ar    1  UNL1       -0.0025
     29 C         139.0198  142.8804  165.2333 C.ar    1  UNL1       -0.0003
     30 C         138.0064  141.9974  164.5673 C.ar    1  UNL1       -0.0000
     31 C         137.5207  142.3226  163.1859 C.ar    1  UNL1       -0.0003
     32 C         138.0483  143.5307  162.4704 C.ar    1  UNL1       -0.0025
@<TRIPOS>BOND
     1    17    18    3
     2    18    11    1
     3    11    12   ar
     4    12    13   ar
     5    13    14   ar
     6    14    10    1
     7    10     1    1
     8     1     2    1
     9     2     3    1
    10     3     4    1
    11     4     5    1
    12     5    19    1
    13    19    20    1
    14    20    21    1
    15    21    23    1
    16    23    24    2
    17    23    25    2
    18    23    26    1
    19    26    27    1
    20    27    28   ar
    21    28    29   ar
    22    29    30   ar
    23    30    31   ar
    24    31    32   ar
    25     5     6    1
    26     6     7    1
    27     7     8    1
    28     7     9    1
    29    14    15   ar
    30    15    16   ar
    31    16    11   ar
    32     8     1    1
    33     9     3    1
    34    32    27   ar
    35    21    22    1
@<TRIPOS>MOLECULE
*****
 32 35 0 0 0
SMALL
GASTEIGER

@<TRIPOS>ATOM
      1 N         138.5195  139.2985  165.6316 N.3     1  UNL1       -0.2647
      2 C         138.8688  138.1765  164.6994 C.3     1  UNL1        0.1037
      3 C         138.7010  138.3516  163.2192 C.3     1  UNL1        0.1470
      4 C         138.5333  138.5267  161.7388 C.3     1  UNL1        0.1035
      5 N         138.0162  139.8237  161.1908 N.3     1  UNL1       -0.2673
      6 C         137.6669  140.9457  162.1232 C.3     1  UNL1        0.1035
      7 C         137.8347  140.7706  163.6034 C.3     1  UNL1        0.1470
      8 C         138.0025  140.5956  165.0837 C.3     1  UNL1        0.1037
      9 O         138.1840  139.6487  162.6712 O.3     1  UNL1       -0.3530
     10 C         138.6873  139.1234  167.1120 C.3     1  UNL1        0.0993
     11 C         141.3505  141.9209  169.4209 C.ar    1  UNL1        0.0684
     12 C         140.1390  141.3270  170.0762 C.ar    1  UNL1        0.0100
     13 C         139.2512  140.3945  169.3066 C.ar    1  UNL1       -0.0022
     14 C         139.5750  140.0559  167.8816 C.ar    1  UNL1       -0.0061
     15 C         140.7866  140.6499  167.2263 C.ar    1  UNL1       -0.0022
     16 C         141.6743  141.5824  167.9960 C.ar    1  UNL1        0.0100
     17 N         143.1259  143.7860  170.9603 N.1     1  UNL1       -0.1908
     18 C         142.2382  142.8534  170.1906 C.1     1  UNL1        0.1004
     19 C         137.8484  139.9988  159.7106 C.3     1  UNL1        0.0913
     20 C         138.3994  141.2181  159.0323 C.3     1  UNL1        0.1084
     21 N         139.8151  141.6431  159.2876 N.3     1  UNL1       -0.1816
     22 H         140.2368  141.8247  158.3767 H       1  UNL1        0.1485
     23 S         140.0952  142.8439  160.1416 S.O2    1  UNL1        0.0451
     24 O         141.4061  142.2437  160.5555 O.2     1  UNL1       -0.1572
     25 O         138.7843  143.4441  159.7278 O.2     1  UNL1       -0.1572
     26 C         140.3753  144.0448  160.9957 C.3     1  UNL1        0.1952
     27 C         140.0140  144.0306  162.4515 C.ar    1  UNL1        0.0029
     28 C         138.6483  144.4700  162.8896 C.ar    1  UNL1       -0.0025
     29 C         138.2870  144.4557  164.3453 C.ar    1  UNL1       -0.0003
     30 C         139.2913  144.0020  165.3630 C.ar    1  UNL1       -0.0000
     31 C         140.6569  143.5627  164.9249 C.ar    1  UNL1       -0.0003
     32 C         141.0183  143.5769  163.4691 C.ar    1  UNL1       -0.0025
@<TRIPOS>BOND
     1    17    18    3
     2    18    11    1
     3    11    12   ar
     4    12    13   ar
     5    13    14   ar
     6    14    10    1
     7    10     1    1
     8     1     2    1
     9     2     3    1
    10     3     4    1
    11     4     5    1
    12     5    19    1
    13    19    20    1
    14    20    21    1
    15    21    23    1
    16    23    24    2
    17    23    25    2
    18    23    26    1
    19    26    27    1
    20    27    28   ar
    21    28    29   ar
    22    29    30   ar
    23    30    31   ar
    24    31    32   ar
    25     5     6    1
    26     6     7    1
    27     7     8    1
    28     7     9    1
    29    14    15   ar
    30    15    16   ar
    31    16    11   ar
    32     8     1    1
    33     9     3    1
    34    32    27   ar
    35    21    22    1
@<TRIPOS>MOLECULE
*****
 32 35 0 0 0
SMALL
GASTEIGER

@<TRIPOS>ATOM
      1 N         143.1512  140.5337  164.5377 N.3     1  UNL1       -0.2647
      2 C         144.2241  141.4967  164.1238 C.3     1  UNL1        0.1037
      3 C         144.2332  142.0566  162.7322 C.3     1  UNL1        0.1470
      4 C         144.2424  142.6165  161.3406 C.3     1  UNL1        0.1035
      5 N         143.1785  142.2134  160.3630 N.3     1  UNL1       -0.2673
      6 C         142.1055  141.2504  160.7770 C.3     1  UNL1        0.1035
      7 C         142.0964  140.6905  162.1686 C.3     1  UNL1        0.1470
      8 C         142.0873  140.1306  163.5601 C.3     1  UNL1        0.1037
      9 O         143.1694  141.6535  161.7546 O.3     1  UNL1       -0.3530
     10 C         143.1421  139.9737  165.9293 C.3     1  UNL1        0.0993
     11 C         140.7406  141.9965  169.1528 C.ar    1  UNL1        0.0684
     12 C         142.0767  142.5495  168.7542 C.ar    1  UNL1        0.0100
     13 C         142.8772  141.8753  167.6797 C.ar    1  UNL1       -0.0022
     14 C         142.3416  140.6480  167.0038 C.ar    1  UNL1       -0.0061
     15 C         141.0054  140.0950  167.4024 C.ar    1  UNL1       -0.0022
     16 C         140.2050  140.7692  168.4769 C.ar    1  UNL1        0.0100
     17 N         139.1397  143.3451  171.3019 N.1     1  UNL1       -0.1908
     18 C         139.9402  142.6708  170.2273 C.1     1  UNL1        0.1004
     19 C         143.1876  142.7733  158.9715 C.3     1  UNL1        0.0913
     20 C         142.2928  143.9250  158.6206 C.3     1  UNL1        0.1084
     21 N         140.8558  143.9164  159.0505 N.3     1  UNL1       -0.1816
     22 H         140.6099  142.9441  159.2367 H       1  UNL1        0.1485
     23 S         140.4271  144.7086  160.2499 S.O2    1  UNL1        0.0451
     24 O         139.1897  143.8683  160.3627 O.2     1  UNL1       -0.1572
     25 O         141.6645  145.5489  160.1371 O.2     1  UNL1       -0.1572
     26 C         139.9984  145.5009  161.4493 C.3     1  UNL1        0.1952
     27 C         139.9858  144.8607  162.8057 C.ar    1  UNL1        0.0029
     28 C         141.2224  144.1944  163.3321 C.ar    1  UNL1       -0.0025
     29 C         141.2098  143.5541  164.6885 C.ar    1  UNL1       -0.0003
     30 C         139.9606  143.5801  165.5186 C.ar    1  UNL1       -0.0000
     31 C         138.7241  144.2463  164.9922 C.ar    1  UNL1       -0.0003
     32 C         138.7367  144.8866  163.6358 C.ar    1  UNL1       -0.0025
@<TRIPOS>BOND
     1    17    18    3
     2    18    11    1
     3    11    12   ar
     4    12    13   ar
     5    13    14   ar
     6    14    10    1
     7    10     1    1
     8     1     2    1
     9     2     3    1
    10     3     4    1
    11     4     5    1
    12     5    19    1
    13    19    20    1
    14    20    21    1
    15    21    23    1
    16    23    24    2
    17    23    25    2
    18    23    26    1
    19    26    27    1
    20    27    28   ar
    21    28    29   ar
    22    29    30   ar
    23    30    31   ar
    24    31    32   ar
    25     5     6    1
    26     6     7    1
    27     7     8    1
    28     7     9    1
    29    14    15   ar
    30    15    16   ar
    31    16    11   ar
    32     8     1    1
    33     9     3    1
    34    32    27   ar
    35    21    22    1
@<TRIPOS>MOLECULE
*****
 32 35 0 0 0
SMALL
GASTEIGER

@<TRIPOS>ATOM
      1 N         143.6097  142.4193  165.9056 N.3     1  UNL1       -0.2647
      2 C         144.3052  143.5597  165.2233 C.3     1  UNL1        0.1037
      3 C         144.3935  143.5967  163.7264 C.3     1  UNL1        0.1470
      4 C         144.4818  143.6337  162.2294 C.3     1  UNL1        0.1035
      5 N         143.8745  142.5303  161.4148 N.3     1  UNL1       -0.2673
      6 C         143.1789  141.3898  162.0972 C.3     1  UNL1        0.1035
      7 C         143.0906  141.3528  163.5941 C.3     1  UNL1        0.1470
      8 C         143.0024  141.3159  165.0910 C.3     1  UNL1        0.1037
      9 O         143.7862  142.4933  162.9118 O.3     1  UNL1       -0.3530
     10 C         143.5214  142.3823  167.4026 C.3     1  UNL1        0.0993
     11 C         139.8690  140.6727  169.3995 C.ar    1  UNL1        0.0684
     12 C         141.0803  139.8133  169.1892 C.ar    1  UNL1        0.0100
     13 C         142.2978  140.3832  168.5236 C.ar    1  UNL1       -0.0022
     14 C         142.3040  141.8124  168.0682 C.ar    1  UNL1       -0.0061
     15 C         141.0926  142.6718  168.2786 C.ar    1  UNL1       -0.0022
     16 C         139.8752  142.1019  168.9442 C.ar    1  UNL1        0.0100
     17 N         137.4342  139.5329  170.7309 N.1     1  UNL1       -0.1908
     18 C         138.6516  140.1028  170.0652 C.1     1  UNL1        0.1004
     19 C         143.9627  142.5673  159.9179 C.3     1  UNL1        0.0913
     20 C         142.9810  143.3817  159.1286 C.3     1  UNL1        0.1084
     21 N         141.5083  143.1569  159.3030 N.3     1  UNL1       -0.1816
     22 H         141.3972  142.2193  159.6890 H       1  UNL1        0.1485
     23 S         140.7063  144.0805  160.1712 S.O2    1  UNL1        0.0451
     24 O         139.6575  143.0200  160.3304 O.2     1  UNL1       -0.1572
     25 O         141.7551  145.1409  160.0119 O.2     1  UNL1       -0.1572
     26 C         139.9043  145.0041  161.0394 C.3     1  UNL1        0.1952
     27 C         139.6509  144.6523  162.4754 C.ar    1  UNL1        0.0029
     28 C         138.2449  144.5801  162.9930 C.ar    1  UNL1       -0.0025
     29 C         137.9915  144.2283  164.4290 C.ar    1  UNL1       -0.0003
     30 C         139.1442  143.9486  165.3473 C.ar    1  UNL1       -0.0000
     31 C         140.5501  144.0208  164.8296 C.ar    1  UNL1       -0.0003
     32 C         140.8035  144.3726  163.3937 C.ar    1  UNL1       -0.0025
@<TRIPOS>BOND
     1    17    18    3
     2    18    11    1
     3    11    12   ar
     4    12    13   ar
     5    13    14   ar
     6    14    10    1
     7    10     1    1
     8     1     2    1
     9     2     3    1
    10     3     4    1
    11     4     5    1
    12     5    19    1
    13    19    20    1
    14    20    21    1
    15    21    23    1
    16    23    24    2
    17    23    25    2
    18    23    26    1
    19    26    27    1
    20    27    28   ar
    21    28    29   ar
    22    29    30   ar
    23    30    31   ar
    24    31    32   ar
    25     5     6    1
    26     6     7    1
    27     7     8    1
    28     7     9    1
    29    14    15   ar
    30    15    16   ar
    31    16    11   ar
    32     8     1    1
    33     9     3    1
    34    32    27   ar
    35    21    22    1
@<TRIPOS>MOLECULE
*****
 32 35 0 0 0
SMALL
GASTEIGER

@<TRIPOS>ATOM
      1 N         141.4215  139.3730  164.0225 N.3     1  UNL1       -0.2647
      2 C         142.6938  139.7779  163.3390 C.3     1  UNL1        0.1037
      3 C         142.6420  140.5341  162.0447 C.3     1  UNL1        0.1470
      4 C         142.5902  141.2904  160.7503 C.3     1  UNL1        0.1035
      5 N         141.2660  141.6418  160.1394 N.3     1  UNL1       -0.2673
      6 C         139.9936  141.2368  160.8230 C.3     1  UNL1        0.1035
      7 C         140.0455  140.4806  162.1173 C.3     1  UNL1        0.1470
      8 C         140.0973  139.7243  163.4116 C.3     1  UNL1        0.1037
      9 O         141.3178  140.8855  161.4338 O.3     1  UNL1       -0.3530
     10 C         141.4733  138.6166  165.3169 C.3     1  UNL1        0.0993
     11 C         140.8956  140.7876  169.2160 C.ar    1  UNL1        0.0684
     12 C         139.7040  140.3729  168.4048 C.ar    1  UNL1        0.0100
     13 C         139.8965  139.6492  167.1050 C.ar    1  UNL1       -0.0022
     14 C         141.2807  139.3403  166.6165 C.ar    1  UNL1       -0.0061
     15 C         142.4723  139.7550  167.4278 C.ar    1  UNL1       -0.0022
     16 C         142.2797  140.4787  168.7275 C.ar    1  UNL1        0.0100
     17 N         140.5104  142.2349  171.8154 N.1     1  UNL1       -0.1908
     18 C         140.7030  141.5113  170.5156 C.1     1  UNL1        0.1004
     19 C         141.2142  142.3980  158.8451 C.3     1  UNL1        0.0913
     20 C         140.9885  143.8810  158.8514 C.3     1  UNL1        0.1084
     21 N         139.8524  144.4634  159.6387 N.3     1  UNL1       -0.1816
     22 H         139.1686  143.7172  159.7650 H       1  UNL1        0.1485
     23 S         140.1044  145.0538  160.9944 S.O2    1  UNL1        0.0451
     24 O         138.7672  144.5577  161.4590 O.2     1  UNL1       -0.1572
     25 O         141.4415  145.5499  160.5299 O.2     1  UNL1       -0.1572
     26 C         140.3564  145.6441  162.3502 C.3     1  UNL1        0.1952
     27 C         140.4312  144.7527  163.5543 C.ar    1  UNL1        0.0029
     28 C         139.3915  144.8572  164.6305 C.ar    1  UNL1       -0.0025
     29 C         139.4663  143.9658  165.8346 C.ar    1  UNL1       -0.0003
     30 C         140.5808  142.9699  165.9624 C.ar    1  UNL1       -0.0000
     31 C         141.6204  142.8655  164.8862 C.ar    1  UNL1       -0.0003
     32 C         141.5456  143.7569  163.6821 C.ar    1  UNL1       -0.0025
@<TRIPOS>BOND
     1    17    18    3
     2    18    11    1
     3    11    12   ar
     4    12    13   ar
     5    13    14   ar
     6    14    10    1
     7    10     1    1
     8     1     2    1
     9     2     3    1
    10     3     4    1
    11     4     5    1
    12     5    19    1
    13    19    20    1
    14    20    21    1
    15    21    23    1
    16    23    24    2
    17    23    25    2
    18    23    26    1
    19    26    27    1
    20    27    28   ar
    21    28    29   ar
    22    29    30   ar
    23    30    31   ar
    24    31    32   ar
    25     5     6    1
    26     6     7    1
    27     7     8    1
    28     7     9    1
    29    14    15   ar
    30    15    16   ar
    31    16    11   ar
    32     8     1    1
    33     9     3    1
    34    32    27   ar
    35    21    22    1
@<TRIPOS>MOLECULE
*****
 32 35 0 0 0
SMALL
GASTEIGER

@<TRIPOS>ATOM
      1 N         138.7206  139.2352  165.8722 N.3     1  UNL1       -0.2647
      2 C         138.5117  140.4887  165.0753 C.3     1  UNL1        0.1037
      3 C         138.5410  140.4380  163.5765 C.3     1  UNL1        0.1470
      4 C         138.5702  140.3875  162.0776 C.3     1  UNL1        0.1035
      5 N         138.8083  139.0834  161.3757 N.3     1  UNL1       -0.2673
      6 C         139.0171  137.8299  162.1727 C.3     1  UNL1        0.1035
      7 C         138.9879  137.8805  163.6715 C.3     1  UNL1        0.1470
      8 C         138.9587  137.9311  165.1703 C.3     1  UNL1        0.1037
      9 O         138.7790  139.1340  162.8746 O.3     1  UNL1       -0.3530
     10 C         138.6914  139.2858  167.3711 C.3     1  UNL1        0.0993
     11 C         141.4853  142.0325  169.5846 C.ar    1  UNL1        0.0684
     12 C         140.1639  141.6607  170.1892 C.ar    1  UNL1        0.0100
     13 C         139.2325  140.7451  169.4514 C.ar    1  UNL1       -0.0022
     14 C         139.6227  140.2013  168.1090 C.ar    1  UNL1       -0.0061
     15 C         140.9442  140.5731  167.5044 C.ar    1  UNL1       -0.0022
     16 C         141.8755  141.4887  168.2422 C.ar    1  UNL1        0.0100
     17 N         143.3479  143.8636  171.0603 N.1     1  UNL1       -0.1908
     18 C         142.4166  142.9480  170.3225 C.1     1  UNL1        0.1004
     19 C         138.8375  139.0328  159.8768 C.3     1  UNL1        0.0913
     20 C         140.1084  138.6789  159.1630 C.3     1  UNL1        0.1084
     21 N         141.2432  139.6589  159.1215 N.3     1  UNL1       -0.1816
     22 H         140.8703  140.5547  159.4359 H       1  UNL1        0.1485
     23 S         142.4855  139.4022  159.9220 S.O2    1  UNL1        0.0451
     24 O         142.5132  137.9871  159.4251 O.2     1  UNL1       -0.1572
     25 O         142.4578  140.8172  160.4188 O.2     1  UNL1       -0.1572
     26 C         143.7278  139.1454  160.7225 C.3     1  UNL1        0.1952
     27 C         143.6704  139.1592  162.2213 C.ar    1  UNL1        0.0029
     28 C         144.6374  140.0000  163.0012 C.ar    1  UNL1       -0.0025
     29 C         144.5800  140.0138  164.5000 C.ar    1  UNL1       -0.0003
     30 C         143.5556  139.1868  165.2190 C.ar    1  UNL1       -0.0000
     31 C         142.5887  138.3462  164.4391 C.ar    1  UNL1       -0.0003
     32 C         142.6461  138.3324  162.9403 C.ar    1  UNL1       -0.0025
@<TRIPOS>BOND
     1    17    18    3
     2    18    11    1
     3    11    12   ar
     4    12    13   ar
     5    13    14   ar
     6    14    10    1
     7    10     1    1
     8     1     2    1
     9     2     3    1
    10     3     4    1
    11     4     5    1
    12     5    19    1
    13    19    20    1
    14    20    21    1
    15    21    23    1
    16    23    24    2
    17    23    25    2
    18    23    26    1
    19    26    27    1
    20    27    28   ar
    21    28    29   ar
    22    29    30   ar
    23    30    31   ar
    24    31    32   ar
    25     5     6    1
    26     6     7    1
    27     7     8    1
    28     7     9    1
    29    14    15   ar
    30    15    16   ar
    31    16    11   ar
    32     8     1    1
    33     9     3    1
    34    32    27   ar
    35    21    22    1
@<TRIPOS>MOLECULE
*****
 32 35 0 0 0
SMALL
GASTEIGER

@<TRIPOS>ATOM
      1 N         139.2520  138.6262  162.7935 N.3     1  UNL1       -0.2647
      2 C         140.5747  138.6763  162.0878 C.3     1  UNL1        0.1037
      3 C         140.7227  139.4770  160.8281 C.3     1  UNL1        0.1470
      4 C         140.8709  140.2778  159.5683 C.3     1  UNL1        0.1035
      5 N         139.6963  141.0284  159.0143 N.3     1  UNL1       -0.2673
      6 C         138.3736  140.9782  159.7201 C.3     1  UNL1        0.1035
      7 C         138.2255  140.1775  160.9798 C.3     1  UNL1        0.1470
      8 C         138.0774  139.3768  162.2395 C.3     1  UNL1        0.1037
      9 O         139.5481  140.2276  160.2741 O.3     1  UNL1       -0.3530
     10 C         139.1039  137.8255  164.0533 C.3     1  UNL1        0.0993
     11 C         139.3697  139.8612  168.0576 C.ar    1  UNL1        0.0684
     12 C         138.1065  139.1596  167.6554 C.ar    1  UNL1        0.0100
     13 C         138.0178  138.4809  166.3206 C.ar    1  UNL1       -0.0022
     14 C         139.1925  138.5040  165.3880 C.ar    1  UNL1       -0.0061
     15 C         140.4558  139.2057  165.7903 C.ar    1  UNL1       -0.0022
     16 C         140.5444  139.8843  167.1251 C.ar    1  UNL1        0.0100
     17 N         139.5469  141.2184  170.7272 N.1     1  UNL1       -0.1908
     18 C         139.4583  140.5398  169.3924 C.1     1  UNL1        0.1004
     19 C         139.8443  141.8291  157.7546 C.3     1  UNL1        0.0913
     20 C         140.0102  143.3181  157.8275 C.3     1  UNL1        0.1084
     21 N         141.1887  143.9073  158.5445 N.3     1  UNL1       -0.1816
     22 H         141.5776  144.6242  157.9321 H       1  UNL1        0.1485
     23 S         141.0067  144.5408  159.8919 S.O2    1  UNL1        0.0451
     24 O         142.4829  144.4403  160.1385 O.2     1  UNL1       -0.1572
     25 O         139.5306  144.6412  159.6453 O.2     1  UNL1       -0.1572
     26 C         140.8247  145.1743  161.2394 C.3     1  UNL1        0.1952
     27 C         140.3025  144.3608  162.3863 C.ar    1  UNL1        0.0029
     28 C         139.4639  145.0109  163.4466 C.ar    1  UNL1       -0.0025
     29 C         138.9417  144.1974  164.5935 C.ar    1  UNL1       -0.0003
     30 C         139.2581  142.7336  164.6801 C.ar    1  UNL1       -0.0000
     31 C         140.0966  142.0835  163.6198 C.ar    1  UNL1       -0.0003
     32 C         140.6188  142.8971  162.4729 C.ar    1  UNL1       -0.0025
@<TRIPOS>BOND
     1    17    18    3
     2    18    11    1
     3    11    12   ar
     4    12    13   ar
     5    13    14   ar
     6    14    10    1
     7    10     1    1
     8     1     2    1
     9     2     3    1
    10     3     4    1
    11     4     5    1
    12     5    19    1
    13    19    20    1
    14    20    21    1
    15    21    23    1
    16    23    24    2
    17    23    25    2
    18    23    26    1
    19    26    27    1
    20    27    28   ar
    21    28    29   ar
    22    29    30   ar
    23    30    31   ar
    24    31    32   ar
    25     5     6    1
    26     6     7    1
    27     7     8    1
    28     7     9    1
    29    14    15   ar
    30    15    16   ar
    31    16    11   ar
    32     8     1    1
    33     9     3    1
    34    32    27   ar
    35    21    22    1
@<TRIPOS>MOLECULE
*****
 32 35 0 0 0
SMALL
GASTEIGER

@<TRIPOS>ATOM
      1 N         142.9012  138.8162  165.8165 N.3     1  UNL1       -0.2647
      2 C         141.7558  138.1155  165.1482 C.3     1  UNL1        0.1037
      3 C         141.7462  137.9475  163.6577 C.3     1  UNL1        0.1470
      4 C         141.7365  137.7796  162.1671 C.3     1  UNL1        0.1035
      5 N         142.8724  138.3124  161.3449 N.3     1  UNL1       -0.2673
      6 C         144.0179  139.0132  162.0134 C.3     1  UNL1        0.1035
      7 C         144.0275  139.1811  163.5039 C.3     1  UNL1        0.1470
      8 C         144.0371  139.3490  164.9944 C.3     1  UNL1        0.1037
      9 O         142.8820  138.4803  162.8355 O.3     1  UNL1       -0.3530
     10 C         142.9109  138.9842  167.3071 C.3     1  UNL1        0.0993
     11 C         141.0566  142.6358  169.1719 C.ar    1  UNL1        0.0684
     12 C         142.5483  142.5262  169.0601 C.ar    1  UNL1        0.0100
     13 C         143.1665  141.3090  168.4385 C.ar    1  UNL1       -0.0022
     14 C         142.2928  140.2014  167.9287 C.ar    1  UNL1       -0.0061
     15 C         140.8009  140.3110  168.0405 C.ar    1  UNL1       -0.0022
     16 C         140.1829  141.5282  168.6621 C.ar    1  UNL1        0.0100
     17 N         139.8203  145.0702  170.4151 N.1     1  UNL1       -0.1908
     18 C         140.4385  143.8530  169.7935 C.1     1  UNL1        0.1004
     19 C         142.8628  138.1444  159.8544 C.3     1  UNL1        0.0913
     20 C         142.5700  139.3194  158.9691 C.3     1  UNL1        0.1084
     21 N         141.2990  140.0955  159.1487 N.3     1  UNL1       -0.1816
     22 H         140.6577  139.4945  159.6663 H       1  UNL1        0.1485
     23 S         141.3212  141.4172  159.8576 S.O2    1  UNL1        0.0451
     24 O         142.8198  141.4262  159.7940 O.2     1  UNL1       -0.1572
     25 O         139.8226  141.4082  159.9212 O.2     1  UNL1       -0.1572
     26 C         141.3433  142.7390  160.5665 C.3     1  UNL1        0.1952
     27 C         141.5417  142.7898  162.0525 C.ar    1  UNL1        0.0029
     28 C         142.1832  143.9904  162.6828 C.ar    1  UNL1       -0.0025
     29 C         142.3817  144.0412  164.1688 C.ar    1  UNL1       -0.0003
     30 C         141.9387  142.8915  165.0244 C.ar    1  UNL1       -0.0000
     31 C         141.2972  141.6910  164.3940 C.ar    1  UNL1       -0.0003
     32 C         141.0988  141.6402  162.9081 C.ar    1  UNL1       -0.0025
@<TRIPOS>BOND
     1    17    18    3
     2    18    11    1
     3    11    12   ar
     4    12    13   ar
     5    13    14   ar
     6    14    10    1
     7    10     1    1
     8     1     2    1
     9     2     3    1
    10     3     4    1
    11     4     5    1
    12     5    19    1
    13    19    20    1
    14    20    21    1
    15    21    23    1
    16    23    24    2
    17    23    25    2
    18    23    26    1
    19    26    27    1
    20    27    28   ar
    21    28    29   ar
    22    29    30   ar
    23    30    31   ar
    24    31    32   ar
    25     5     6    1
    26     6     7    1
    27     7     8    1
    28     7     9    1
    29    14    15   ar
    30    15    16   ar
    31    16    11   ar
    32     8     1    1
    33     9     3    1
    34    32    27   ar
    35    21    22    1
