@<TRIPOS>MOLECULE
*****
 39 44 0 0 0
SMALL
GASTEIGER

@<TRIPOS>ATOM
      1 C         138.7342  141.8819  159.8300 C.3     1  UNL1        0.0546
      2 C         138.2371  140.5234  159.4332 C.3     1  UNL1        0.0180
      3 C         139.3429  139.8201  158.7036 C.3     1  UNL1        0.0310
      4 C         139.7192  138.5458  158.0074 C.3     1  UNL1        0.0932
      5 N         141.1323  138.6820  157.5231 N.pl3   1  UNL1       -0.2877
      6 C         141.6294  140.0404  157.9200 C.3     1  UNL1        0.1012
      7 C         140.5236  140.7438  158.6495 C.3     1  UNL1        0.0901
      8 C         140.1473  142.0181  159.3457 C.3     1  UNL1        0.0261
      9 C         141.7041  141.6675  158.5955 C.2     1  UNL1        0.2267
     10 O         141.8733  142.6012  157.4338 O.2     1  UNL1       -0.2748
     11 N         142.7155  141.6576  159.7033 N.am    1  UNL1       -0.2750
     12 C         143.8961  142.5814  159.6492 C.3     1  UNL1        0.1000
     13 C         144.9074  142.5715  160.7570 C.3     1  UNL1        0.0670
     14 C         144.7382  141.6378  161.9187 C.ar    1  UNL1        0.0583
     15 N         145.7496  141.6279  163.0264 N.ar    1  UNL1       -0.2484
     16 C         145.5804  140.6942  164.1882 C.ar    1  UNL1        0.1023
     17 C         144.3997  139.7705  164.2422 C.ar    1  UNL1        0.0902
     18 C         143.3884  139.7804  163.1345 C.ar    1  UNL1        0.0040
     19 C         143.5576  140.7141  161.9727 C.ar    1  UNL1        0.0113
     20 C         142.5463  140.7240  160.8650 C.3     1  UNL1        0.1213
     21 C         144.2305  138.8368  165.4039 C.3     1  UNL1        0.4200
     22 F         144.0613  137.9031  166.5656 F       1  UNL1       -0.1658
     23 F         142.7542  139.1026  165.4025 F       1  UNL1       -0.1658
     24 F         145.7068  138.5710  165.4053 F       1  UNL1       -0.1658
     25 C         141.9115  137.6422  156.7735 C.ar    1  UNL1        0.1631
     26 N         143.4063  137.5548  156.6843 N.ar    1  UNL1       -0.2225
     27 C         143.7513  136.3659  155.8372 C.ar    1  UNL1        0.1079
     28 C         142.4698  135.7187  155.4029 C.ar    1  UNL1        0.0588
     29 S         141.3326  136.5075  155.9816 S.2     1  UNL1       -0.0509
     30 N         137.9549  142.9216  160.5796 N.3     1  UNL1       -0.2975
     31 H         138.2571  143.8288  160.2246 H       1  UNL1        0.1232
     32 C         138.3525  144.2948  162.7490 C.3     1  UNL1        0.1591
     33 C         138.4401  144.3641  164.2448 C.3     1  UNL1        0.1729
     34 O         138.2180  143.1295  165.0671 O.3     1  UNL1       -0.3511
     35 C         137.9081  141.8255  164.3936 C.3     1  UNL1        0.1437
     36 C         137.8204  141.7562  162.8978 C.3     1  UNL1        0.0503
     37 C         138.0426  142.9909  162.0755 C.3     1  UNL1        0.0865
     38 C         139.9705  145.9845  161.6188 C.3     1  UNL1        0.1742
     39 O         138.5746  145.5295  161.9267 O.3     1  UNL1       -0.3496
@<TRIPOS>BOND
     1    38    39    1
     2    39    32    1
     3    32    33    1
     4    33    34    1
     5    34    35    1
     6    35    36    1
     7    36    37    1
     8    37    30    1
     9     1    30    1
    10     1     2    1
    11     3     2    1
    12     3     4    1
    13     4     5    1
    14     5    25    1
    15    25    26   ar
    16    26    27   ar
    17    27    28   ar
    18    28    29   ar
    19     5     6    1
    20     6     7    1
    21     7     9    1
    22     9    10    2
    23     9    11   am
    24    11    12    1
    25    12    13    1
    26    13    14    1
    27    14    15   ar
    28    15    16   ar
    29    16    17   ar
    30    17    21    1
    31    21    22    1
    32    21    23    1
    33    21    24    1
    34    17    18   ar
    35    18    19   ar
    36    19    20    1
    37     7     8    1
    38    37    32    1
    39     8     1    1
    40     7     3    1
    41    20    11    1
    42    29    25   ar
    43    19    14   ar
    44    30    31    1
@<TRIPOS>MOLECULE
*****
 39 44 0 0 0
SMALL
GASTEIGER

@<TRIPOS>ATOM
      1 C         139.1542  138.1364  164.3616 C.3     1  UNL1        0.0546
      2 C         138.2832  138.4778  165.5342 C.3     1  UNL1        0.0180
      3 C         139.1416  139.1363  166.5731 C.3     1  UNL1        0.0310
      4 C         139.1339  139.7543  167.9399 C.3     1  UNL1        0.0932
      5 N         140.5306  140.2019  168.2541 N.pl3   1  UNL1       -0.2877
      6 C         141.4016  139.8605  167.0816 C.3     1  UNL1        0.1012
      7 C         140.5432  139.2020  166.0427 C.3     1  UNL1        0.0901
      8 C         140.5509  138.5840  164.6759 C.3     1  UNL1        0.0261
      9 C         141.9447  139.2676  165.5122 C.2     1  UNL1        0.2267
     10 O         142.9427  138.2164  165.8981 O.2     1  UNL1       -0.2748
     11 N         142.3483  140.3846  164.5959 N.am    1  UNL1       -0.2750
     12 C         143.7498  140.4503  164.0655 C.3     1  UNL1        0.1000
     13 C         144.1533  141.5672  163.1492 C.3     1  UNL1        0.0670
     14 C         143.1554  142.6185  162.7634 C.ar    1  UNL1        0.0583
     15 N         143.5590  143.7355  161.8471 N.ar    1  UNL1       -0.2484
     16 C         142.5610  144.7867  161.4613 C.ar    1  UNL1        0.1023
     17 C         141.1594  144.7210  161.9918 C.ar    1  UNL1        0.0902
     18 C         140.7559  143.6041  162.9080 C.ar    1  UNL1        0.0040
     19 C         141.7539  142.5528  163.2939 C.ar    1  UNL1        0.0113
     20 C         141.3503  141.4359  164.2101 C.3     1  UNL1        0.1213
     21 C         140.1614  145.7723  161.6060 C.3     1  UNL1        0.4200
     22 F         139.1635  146.8236  161.2202 F       1  UNL1       -0.1658
     23 F         140.7736  145.8518  160.2389 F       1  UNL1       -0.1658
     24 F         139.5492  145.6929  162.9730 F       1  UNL1       -0.1658
     25 C         140.9778  140.8730  169.5190 C.ar    1  UNL1        0.1631
     26 N         140.2956  140.7861  170.8520 N.ar    1  UNL1       -0.2225
     27 C         141.0819  141.6082  171.8296 C.ar    1  UNL1        0.1079
     28 C         142.2501  142.2032  171.1008 C.ar    1  UNL1        0.0588
     29 S         142.1858  141.7489  169.6726 S.2     1  UNL1       -0.0509
     30 N         138.7070  137.4653  163.0968 N.3     1  UNL1       -0.2975
     31 H         139.3012  136.6457  162.9724 H       1  UNL1        0.1232
     32 C         139.9554  138.1842  160.9348 C.3     1  UNL1        0.1591
     33 C         139.9787  138.9370  159.6376 C.3     1  UNL1        0.1729
     34 O         138.7771  139.7238  159.2053 O.3     1  UNL1       -0.3511
     35 C         137.5520  139.7578  160.0702 C.3     1  UNL1        0.1437
     36 C         137.5286  139.0049  161.3674 C.3     1  UNL1        0.0503
     37 C         138.7303  138.2181  161.7996 C.3     1  UNL1        0.0865
     38 C         142.4802  138.0828  161.5391 C.3     1  UNL1        0.1742
     39 O         141.1570  137.3974  161.3670 O.3     1  UNL1       -0.3496
@<TRIPOS>BOND
     1    38    39    1
     2    39    32    1
     3    32    33    1
     4    33    34    1
     5    34    35    1
     6    35    36    1
     7    36    37    1
     8    37    30    1
     9     1    30    1
    10     1     2    1
    11     3     2    1
    12     3     4    1
    13     4     5    1
    14     5    25    1
    15    25    26   ar
    16    26    27   ar
    17    27    28   ar
    18    28    29   ar
    19     5     6    1
    20     6     7    1
    21     7     9    1
    22     9    10    2
    23     9    11   am
    24    11    12    1
    25    12    13    1
    26    13    14    1
    27    14    15   ar
    28    15    16   ar
    29    16    17   ar
    30    17    21    1
    31    21    22    1
    32    21    23    1
    33    21    24    1
    34    17    18   ar
    35    18    19   ar
    36    19    20    1
    37     7     8    1
    38    37    32    1
    39     8     1    1
    40     7     3    1
    41    20    11    1
    42    29    25   ar
    43    19    14   ar
    44    30    31    1
@<TRIPOS>MOLECULE
*****
 39 44 0 0 0
SMALL
GASTEIGER

@<TRIPOS>ATOM
      1 C         141.2425  138.1038  160.8559 C.3     1  UNL1        0.0546
      2 C         141.5254  138.4124  159.4156 C.3     1  UNL1        0.0180
      3 C         140.3619  139.1861  158.8701 C.3     1  UNL1        0.0310
      4 C         139.8177  139.8551  157.6428 C.3     1  UNL1        0.0932
      5 N         138.4793  140.4381  157.9875 N.pl3   1  UNL1       -0.2877
      6 C         138.1963  140.1295  159.4279 C.3     1  UNL1        0.1012
      7 C         139.3598  139.3557  159.9734 C.3     1  UNL1        0.0901
      8 C         139.9041  138.6868  161.2007 C.3     1  UNL1        0.0261
      9 C         138.3578  139.5253  161.0766 C.2     1  UNL1        0.2267
     10 O         136.9619  139.0024  160.9089 O.2     1  UNL1       -0.2748
     11 N         138.7516  140.2177  162.3476 N.am    1  UNL1       -0.2750
     12 C         137.7496  140.3873  163.4509 C.3     1  UNL1        0.1000
     13 C         138.1435  141.0797  164.7218 C.3     1  UNL1        0.0670
     14 C         139.5394  141.6026  164.8895 C.ar    1  UNL1        0.0583
     15 N         139.9332  142.2951  166.1606 N.ar    1  UNL1       -0.2484
     16 C         141.3291  142.8180  166.3283 C.ar    1  UNL1        0.1023
     17 C         142.3311  142.6484  165.2249 C.ar    1  UNL1        0.0902
     18 C         141.9372  141.9560  163.9540 C.ar    1  UNL1        0.0040
     19 C         140.5414  141.4331  163.7863 C.ar    1  UNL1        0.0113
     20 C         140.1475  140.7406  162.5153 C.3     1  UNL1        0.1213
     21 C         143.7270  143.1714  165.3926 C.3     1  UNL1        0.4200
     22 F         145.1228  143.6943  165.5603 F       1  UNL1       -0.1658
     23 F         143.7605  142.6329  166.7923 F       1  UNL1       -0.1658
     24 F         143.6934  143.7098  163.9930 F       1  UNL1       -0.1658
     25 C         137.5814  141.1966  157.0555 C.ar    1  UNL1        0.1631
     26 N         136.3489  140.6618  156.3886 N.ar    1  UNL1       -0.2225
     27 C         135.7643  141.7577  155.5476 C.ar    1  UNL1        0.1079
     28 C         136.6355  142.9698  155.6948 C.ar    1  UNL1        0.0588
     29 S         137.7587  142.6230  156.6267 S.2     1  UNL1       -0.0509
     30 N         142.1403  137.3453  161.7880 N.3     1  UNL1       -0.2975
     31 H         141.5846  136.5838  162.1775 H       1  UNL1        0.1232
     32 C         142.2148  137.8969  164.3257 C.3     1  UNL1        0.1591
     33 C         142.8588  138.5995  165.4841 C.3     1  UNL1        0.1729
     34 O         144.0724  139.4529  165.2630 O.3     1  UNL1       -0.3511
     35 C         144.6420  139.6038  163.8835 C.3     1  UNL1        0.1437
     36 C         143.9980  138.9013  162.7252 C.3     1  UNL1        0.0503
     37 C         142.7843  138.0478  162.9463 C.3     1  UNL1        0.0865
     38 C         139.6860  137.6823  164.8820 C.3     1  UNL1        0.1742
     39 O         141.0012  137.0435  164.5468 O.3     1  UNL1       -0.3496
@<TRIPOS>BOND
     1    38    39    1
     2    39    32    1
     3    32    33    1
     4    33    34    1
     5    34    35    1
     6    35    36    1
     7    36    37    1
     8    37    30    1
     9     1    30    1
    10     1     2    1
    11     3     2    1
    12     3     4    1
    13     4     5    1
    14     5    25    1
    15    25    26   ar
    16    26    27   ar
    17    27    28   ar
    18    28    29   ar
    19     5     6    1
    20     6     7    1
    21     7     9    1
    22     9    10    2
    23     9    11   am
    24    11    12    1
    25    12    13    1
    26    13    14    1
    27    14    15   ar
    28    15    16   ar
    29    16    17   ar
    30    17    21    1
    31    21    22    1
    32    21    23    1
    33    21    24    1
    34    17    18   ar
    35    18    19   ar
    36    19    20    1
    37     7     8    1
    38    37    32    1
    39     8     1    1
    40     7     3    1
    41    20    11    1
    42    29    25   ar
    43    19    14   ar
    44    30    31    1
@<TRIPOS>MOLECULE
*****
 39 44 0 0 0
SMALL
GASTEIGER

@<TRIPOS>ATOM
      1 C         140.0440  141.0104  158.8274 C.3     1  UNL1        0.0546
      2 C         139.3439  140.0941  157.8681 C.3     1  UNL1        0.0180
      3 C         140.2535  138.9351  157.5866 C.3     1  UNL1        0.0310
      4 C         140.3830  137.6524  156.8198 C.3     1  UNL1        0.0932
      5 N         141.7253  137.0597  157.1312 N.pl3   1  UNL1       -0.2877
      6 C         142.4253  137.9760  158.0904 C.3     1  UNL1        0.1012
      7 C         141.5158  139.1350  158.3719 C.3     1  UNL1        0.0901
      8 C         141.3863  140.4177  159.1388 C.3     1  UNL1        0.0261
      9 C         142.7780  139.3350  159.1573 C.2     1  UNL1        0.2267
     10 O         144.0749  139.5773  158.4436 O.2     1  UNL1       -0.2748
     11 N         142.7433  139.2927  160.6563 N.am    1  UNL1       -0.2750
     12 C         144.0055  139.4927  161.4416 C.3     1  UNL1        0.1000
     13 C         143.9708  139.4504  162.9406 C.3     1  UNL1        0.0670
     14 C         142.6739  139.2081  163.6543 C.ar    1  UNL1        0.0583
     15 N         142.6393  139.1658  165.1533 N.ar    1  UNL1       -0.2484
     16 C         141.3423  138.9235  165.8670 C.ar    1  UNL1        0.1023
     17 C         140.0801  138.7235  165.0816 C.ar    1  UNL1        0.0902
     18 C         140.1148  138.7658  163.5826 C.ar    1  UNL1        0.0040
     19 C         141.4117  139.0081  162.8689 C.ar    1  UNL1        0.0113
     20 C         141.4464  139.0504  161.3700 C.3     1  UNL1        0.1213
     21 C         138.7832  138.4812  165.7952 C.3     1  UNL1        0.4200
     22 F         137.4862  138.2389  166.5089 F       1  UNL1       -0.1658
     23 F         138.7167  139.9328  166.1673 F       1  UNL1       -0.1658
     24 F         138.8496  137.0296  165.4231 F       1  UNL1       -0.1658
     25 C         142.2715  135.7760  156.5800 C.ar    1  UNL1        0.1631
     26 N         143.3724  134.9551  157.1834 N.ar    1  UNL1       -0.2225
     27 C         143.5940  133.7596  156.3050 C.ar    1  UNL1        0.1079
     28 C         142.6301  133.8416  155.1587 C.ar    1  UNL1        0.0588
     29 S         141.8127  135.0879  155.3286 S.2     1  UNL1       -0.0509
     30 N         139.4977  142.2942  159.3786 N.3     1  UNL1       -0.2975
     31 H         140.2796  142.9468  159.4349 H       1  UNL1        0.1232
     32 C         138.7760  143.5754  161.5204 C.3     1  UNL1        0.1591
     33 C         138.1027  143.5898  162.8607 C.3     1  UNL1        0.1729
     34 O         137.4775  142.3372  163.3994 O.3     1  UNL1       -0.3511
     35 C         137.5258  141.0702  162.5978 C.3     1  UNL1        0.1437
     36 C         138.1992  141.0559  161.2575 C.3     1  UNL1        0.0503
     37 C         138.8243  142.3085  160.7188 C.3     1  UNL1        0.0865
     38 C         139.7388  145.9569  161.9099 C.3     1  UNL1        0.1742
     39 O         139.4012  144.8280  160.9817 O.3     1  UNL1       -0.3496
@<TRIPOS>BOND
     1    38    39    1
     2    39    32    1
     3    32    33    1
     4    33    34    1
     5    34    35    1
     6    35    36    1
     7    36    37    1
     8    37    30    1
     9     1    30    1
    10     1     2    1
    11     3     2    1
    12     3     4    1
    13     4     5    1
    14     5    25    1
    15    25    26   ar
    16    26    27   ar
    17    27    28   ar
    18    28    29   ar
    19     5     6    1
    20     6     7    1
    21     7     9    1
    22     9    10    2
    23     9    11   am
    24    11    12    1
    25    12    13    1
    26    13    14    1
    27    14    15   ar
    28    15    16   ar
    29    16    17   ar
    30    17    21    1
    31    21    22    1
    32    21    23    1
    33    21    24    1
    34    17    18   ar
    35    18    19   ar
    36    19    20    1
    37     7     8    1
    38    37    32    1
    39     8     1    1
    40     7     3    1
    41    20    11    1
    42    29    25   ar
    43    19    14   ar
    44    30    31    1
@<TRIPOS>MOLECULE
*****
 39 44 0 0 0
SMALL
GASTEIGER

@<TRIPOS>ATOM
      1 C         140.0916  138.4910  160.3956 C.3     1  UNL1        0.0546
      2 C         139.9865  139.1166  159.0364 C.3     1  UNL1        0.0180
      3 C         141.3596  139.5533  158.6197 C.3     1  UNL1        0.0310
      4 C         142.1434  140.2099  157.5221 C.3     1  UNL1        0.0932
      5 N         143.5815  140.2599  157.9454 N.pl3   1  UNL1       -0.2877
      6 C         143.6867  139.6342  159.3046 C.3     1  UNL1        0.1012
      7 C         142.3135  139.1975  159.7214 C.3     1  UNL1        0.0901
      8 C         141.5298  138.5410  160.8189 C.3     1  UNL1        0.0261
      9 C         143.2673  138.8417  160.8230 C.2     1  UNL1        0.2267
     10 O         144.3307  137.8097  160.5903 O.2     1  UNL1       -0.2748
     11 N         143.1577  139.5180  162.1575 N.am    1  UNL1       -0.2750
     12 C         144.1115  139.1622  163.2591 C.3     1  UNL1        0.1000
     13 C         144.0019  139.8384  164.5935 C.3     1  UNL1        0.0670
     14 C         142.9385  140.8704  164.8263 C.ar    1  UNL1        0.0583
     15 N         142.8289  141.5467  166.1608 N.ar    1  UNL1       -0.2484
     16 C         141.7655  142.5787  166.3935 C.ar    1  UNL1        0.1023
     17 C         140.8117  142.9344  165.2918 C.ar    1  UNL1        0.0902
     18 C         140.9213  142.2582  163.9574 C.ar    1  UNL1        0.0040
     19 C         141.9847  141.2262  163.7246 C.ar    1  UNL1        0.0113
     20 C         142.0943  140.5500  162.3902 C.3     1  UNL1        0.1213
     21 C         139.7484  143.9665  165.5245 C.3     1  UNL1        0.4200
     22 F         138.6850  144.9985  165.7573 F       1  UNL1       -0.1658
     23 F         139.6951  144.2438  164.0513 F       1  UNL1       -0.1658
     24 F         139.8016  143.6891  166.9977 F       1  UNL1       -0.1658
     25 C         144.7155  140.8346  157.1492 C.ar    1  UNL1        0.1631
     26 N         145.5035  142.0627  157.4969 N.ar    1  UNL1       -0.2225
     27 C         146.5355  142.2692  156.4282 C.ar    1  UNL1        0.1079
     28 C         146.3853  141.1689  155.4199 C.ar    1  UNL1        0.0588
     29 S         145.2604  140.2822  155.8655 S.2     1  UNL1       -0.0509
     30 N         138.9576  137.9162  161.1918 N.3     1  UNL1       -0.2975
     31 H         138.1071  138.0790  160.6528 H       1  UNL1        0.1232
     32 C         138.0454  139.7495  162.7907 C.3     1  UNL1        0.1591
     33 C         137.7785  140.2450  164.1811 C.3     1  UNL1        0.1729
     34 O         138.1567  139.4025  165.3631 O.3     1  UNL1       -0.3511
     35 C         138.8020  138.0644  165.1546 C.3     1  UNL1        0.1437
     36 C         139.0690  137.5690  163.7642 C.3     1  UNL1        0.0503
     37 C         138.6907  138.4116  162.5822 C.3     1  UNL1        0.0865
     38 C         138.3603  141.9003  161.3677 C.3     1  UNL1        0.1742
     39 O         137.6672  140.5921  161.6088 O.3     1  UNL1       -0.3496
@<TRIPOS>BOND
     1    38    39    1
     2    39    32    1
     3    32    33    1
     4    33    34    1
     5    34    35    1
     6    35    36    1
     7    36    37    1
     8    37    30    1
     9     1    30    1
    10     1     2    1
    11     3     2    1
    12     3     4    1
    13     4     5    1
    14     5    25    1
    15    25    26   ar
    16    26    27   ar
    17    27    28   ar
    18    28    29   ar
    19     5     6    1
    20     6     7    1
    21     7     9    1
    22     9    10    2
    23     9    11   am
    24    11    12    1
    25    12    13    1
    26    13    14    1
    27    14    15   ar
    28    15    16   ar
    29    16    17   ar
    30    17    21    1
    31    21    22    1
    32    21    23    1
    33    21    24    1
    34    17    18   ar
    35    18    19   ar
    36    19    20    1
    37     7     8    1
    38    37    32    1
    39     8     1    1
    40     7     3    1
    41    20    11    1
    42    29    25   ar
    43    19    14   ar
    44    30    31    1
@<TRIPOS>MOLECULE
*****
 39 44 0 0 0
SMALL
GASTEIGER

@<TRIPOS>ATOM
      1 C         142.5211  143.7363  163.5979 C.3     1  UNL1        0.0546
      2 C         141.7397  144.9584  163.2161 C.3     1  UNL1        0.0180
      3 C         141.3722  144.8396  161.7667 C.3     1  UNL1        0.0310
      4 C         140.6621  145.5214  160.6349 C.3     1  UNL1        0.0932
      5 N         140.7776  144.6473  159.4214 N.pl3   1  UNL1       -0.2877
      6 C         141.5591  143.4252  159.8032 C.3     1  UNL1        0.1012
      7 C         141.9265  143.5440  161.2526 C.3     1  UNL1        0.0901
      8 C         142.6366  142.8621  162.3844 C.3     1  UNL1        0.0261
      9 C         142.4809  142.2484  160.7386 C.2     1  UNL1        0.2267
     10 O         143.4666  142.2504  159.6080 O.2     1  UNL1       -0.2748
     11 N         142.0495  140.9508  161.3553 N.am    1  UNL1       -0.2750
     12 C         142.6038  139.6553  160.8413 C.3     1  UNL1        0.1000
     13 C         142.1725  138.3578  161.4579 C.3     1  UNL1        0.0670
     14 C         141.1868  138.3558  162.5886 C.ar    1  UNL1        0.0583
     15 N         140.7554  137.0582  163.2052 N.ar    1  UNL1       -0.2484
     16 C         139.7697  137.0562  164.3359 C.ar    1  UNL1        0.1023
     17 C         139.2153  138.3518  164.8499 C.ar    1  UNL1        0.0902
     18 C         139.6467  139.6493  164.2332 C.ar    1  UNL1        0.0040
     19 C         140.6324  139.6513  163.1026 C.ar    1  UNL1        0.0113
     20 C         141.0638  140.9488  162.4859 C.3     1  UNL1        0.1213
     21 C         138.2296  138.3498  165.9805 C.3     1  UNL1        0.4200
     22 F         137.2439  138.3478  167.1112 F       1  UNL1       -0.1658
     23 F         138.2284  136.8498  165.9768 F       1  UNL1       -0.1658
     24 F         138.2309  139.8498  165.9842 F       1  UNL1       -0.1658
     25 C         140.2111  144.9433  158.0644 C.ar    1  UNL1        0.1631
     26 N         140.1062  146.2981  157.4291 N.ar    1  UNL1       -0.2225
     27 C         139.4803  146.1286  156.0765 C.ar    1  UNL1        0.1079
     28 C         139.1984  144.6691  155.8759 C.ar    1  UNL1        0.0588
     29 S         139.6500  143.9365  157.1045 S.2     1  UNL1       -0.0509
     30 N         143.0876  143.4402  164.9549 N.3     1  UNL1       -0.2975
     31 H         144.0908  143.3030  164.8316 H       1  UNL1        0.1232
     32 C         143.2639  140.9340  165.6164 C.3     1  UNL1        0.1591
     33 C         142.7590  139.7586  166.3997 C.3     1  UNL1        0.1729
     34 O         141.5732  139.9141  167.3049 O.3     1  UNL1       -0.3511
     35 C         140.8920  141.2450  167.4268 C.3     1  UNL1        0.1437
     36 C         141.3969  142.4204  166.6435 C.3     1  UNL1        0.0503
     37 C         142.5828  142.2648  165.7382 C.3     1  UNL1        0.0865
     38 C         144.6595  139.4950  163.9636 C.3     1  UNL1        0.1742
     39 O         144.4497  140.7785  164.7111 O.3     1  UNL1       -0.3496
@<TRIPOS>BOND
     1    38    39    1
     2    39    32    1
     3    32    33    1
     4    33    34    1
     5    34    35    1
     6    35    36    1
     7    36    37    1
     8    37    30    1
     9     1    30    1
    10     1     2    1
    11     3     2    1
    12     3     4    1
    13     4     5    1
    14     5    25    1
    15    25    26   ar
    16    26    27   ar
    17    27    28   ar
    18    28    29   ar
    19     5     6    1
    20     6     7    1
    21     7     9    1
    22     9    10    2
    23     9    11   am
    24    11    12    1
    25    12    13    1
    26    13    14    1
    27    14    15   ar
    28    15    16   ar
    29    16    17   ar
    30    17    21    1
    31    21    22    1
    32    21    23    1
    33    21    24    1
    34    17    18   ar
    35    18    19   ar
    36    19    20    1
    37     7     8    1
    38    37    32    1
    39     8     1    1
    40     7     3    1
    41    20    11    1
    42    29    25   ar
    43    19    14   ar
    44    30    31    1
@<TRIPOS>MOLECULE
*****
 39 44 0 0 0
SMALL
GASTEIGER

@<TRIPOS>ATOM
      1 C         138.4002  141.9995  160.4917 C.3     1  UNL1        0.0546
      2 C         139.0475  142.1793  159.1505 C.3     1  UNL1        0.0180
      3 C         139.6936  140.8802  158.7698 C.3     1  UNL1        0.0310
      4 C         140.4929  140.1884  157.7056 C.3     1  UNL1        0.0932
      5 N         140.7389  138.7782  158.1537 N.pl3   1  UNL1       -0.2877
      6 C         140.0916  138.5984  159.4949 C.3     1  UNL1        0.1012
      7 C         139.4456  139.8975  159.8756 C.3     1  UNL1        0.0901
      8 C         138.6463  140.5893  160.9398 C.3     1  UNL1        0.0261
      9 C         139.1976  138.9149  160.9815 C.2     1  UNL1        0.2267
     10 O         138.2613  137.7631  160.7654 O.2     1  UNL1       -0.2748
     11 N         139.8859  139.0840  162.3035 N.am    1  UNL1       -0.2750
     12 C         139.6379  138.1014  163.4094 C.3     1  UNL1        0.1000
     13 C         140.3262  138.2706  164.7313 C.3     1  UNL1        0.0670
     14 C         141.2624  139.4224  164.9474 C.ar    1  UNL1        0.0583
     15 N         141.9507  139.5916  166.2694 N.ar    1  UNL1       -0.2484
     16 C         142.8870  140.7434  166.4856 C.ar    1  UNL1        0.1023
     17 C         143.1350  141.7261  165.3796 C.ar    1  UNL1        0.0902
     18 C         142.4467  141.5569  164.0577 C.ar    1  UNL1        0.0040
     19 C         141.5104  140.4051  163.8416 C.ar    1  UNL1        0.0113
     20 C         140.8222  140.2359  162.5196 C.3     1  UNL1        0.1213
     21 C         144.0713  142.8779  165.5957 C.3     1  UNL1        0.4200
     22 F         145.0076  144.0297  165.8118 F       1  UNL1       -0.1658
     23 F         143.7874  142.8324  167.0679 F       1  UNL1       -0.1658
     24 F         144.3551  142.9234  164.1235 F       1  UNL1       -0.1658
     25 C         141.4988  137.7315  157.3940 C.ar    1  UNL1        0.1631
     26 N         142.9233  137.3277  157.6343 N.ar    1  UNL1       -0.2225
     27 C         143.2724  136.2515  156.6495 C.ar    1  UNL1        0.1079
     28 C         142.0637  135.9903  155.8005 C.ar    1  UNL1        0.0588
     29 S         140.9675  136.9049  156.2606 S.2     1  UNL1       -0.0509
     30 N         137.6403  143.0462  161.2514 N.3     1  UNL1       -0.2975
     31 H         137.5831  143.8656  160.6466 H       1  UNL1        0.1232
     32 C         138.9434  144.7909  162.6685 C.3     1  UNL1        0.1591
     33 C         139.4490  145.2681  163.9976 C.3     1  UNL1        0.1729
     34 O         139.1573  144.4779  165.2387 O.3     1  UNL1       -0.3511
     35 C         138.3599  143.2104  165.1508 C.3     1  UNL1        0.1437
     36 C         137.8543  142.7332  163.8217 C.3     1  UNL1        0.0503
     37 C         138.1460  143.5234  162.5805 C.3     1  UNL1        0.0865
     38 C         140.5555  145.4262  160.7326 C.3     1  UNL1        0.1742
     39 O         139.2350  145.5811  161.4274 O.3     1  UNL1       -0.3496
@<TRIPOS>BOND
     1    38    39    1
     2    39    32    1
     3    32    33    1
     4    33    34    1
     5    34    35    1
     6    35    36    1
     7    36    37    1
     8    37    30    1
     9     1    30    1
    10     1     2    1
    11     3     2    1
    12     3     4    1
    13     4     5    1
    14     5    25    1
    15    25    26   ar
    16    26    27   ar
    17    27    28   ar
    18    28    29   ar
    19     5     6    1
    20     6     7    1
    21     7     9    1
    22     9    10    2
    23     9    11   am
    24    11    12    1
    25    12    13    1
    26    13    14    1
    27    14    15   ar
    28    15    16   ar
    29    16    17   ar
    30    17    21    1
    31    21    22    1
    32    21    23    1
    33    21    24    1
    34    17    18   ar
    35    18    19   ar
    36    19    20    1
    37     7     8    1
    38    37    32    1
    39     8     1    1
    40     7     3    1
    41    20    11    1
    42    29    25   ar
    43    19    14   ar
    44    30    31    1
@<TRIPOS>MOLECULE
*****
 39 44 0 0 0
SMALL
GASTEIGER

@<TRIPOS>ATOM
      1 C         138.0535  140.2428  163.2750 C.3     1  UNL1        0.0546
      2 C         138.5741  139.4611  164.4445 C.3     1  UNL1        0.0180
      3 C         139.1561  140.4318  165.4289 C.3     1  UNL1        0.0310
      4 C         139.8376  140.5486  166.7600 C.3     1  UNL1        0.0932
      5 N         140.0977  142.0026  167.0216 N.pl3   1  UNL1       -0.2877
      6 C         139.5771  142.7844  165.8521 C.3     1  UNL1        0.1012
      7 C         138.9951  141.8136  164.8677 C.3     1  UNL1        0.0901
      8 C         138.3136  141.6968  163.5366 C.3     1  UNL1        0.0261
      9 C         138.8341  143.1953  164.3066 C.2     1  UNL1        0.2267
     10 O         137.9145  144.1738  164.9750 O.2     1  UNL1       -0.2748
     11 N         139.5927  143.5986  163.0770 N.am    1  UNL1       -0.2750
     12 C         139.4317  144.9803  162.5158 C.3     1  UNL1        0.1000
     13 C         140.1904  145.3835  161.2863 C.3     1  UNL1        0.0670
     14 C         141.1100  144.4050  160.6179 C.ar    1  UNL1        0.0583
     15 N         141.8687  144.8083  159.3882 N.ar    1  UNL1       -0.2484
     16 C         142.7883  143.8298  158.7198 C.ar    1  UNL1        0.1023
     17 C         142.9493  142.4480  159.2810 C.ar    1  UNL1        0.0902
     18 C         142.1907  142.0448  160.5106 C.ar    1  UNL1        0.0040
     19 C         141.2710  143.0233  161.1790 C.ar    1  UNL1        0.0113
     20 C         140.5124  142.6201  162.4085 C.3     1  UNL1        0.1213
     21 C         143.8689  141.4695  158.6126 C.3     1  UNL1        0.4200
     22 F         144.7886  140.4910  157.9442 F       1  UNL1       -0.1658
     23 F         142.6961  140.5967  158.2767 F       1  UNL1       -0.1658
     24 F         145.0417  142.3423  158.9484 F       1  UNL1       -0.1658
     25 C         140.7620  142.5743  168.2389 C.ar    1  UNL1        0.1631
     26 N         140.1810  143.6090  169.1565 N.ar    1  UNL1       -0.2225
     27 C         141.1838  143.8859  170.2371 C.ar    1  UNL1        0.1079
     28 C         142.3845  143.0224  169.9874 C.ar    1  UNL1        0.0588
     29 S         142.1239  142.2117  168.7524 S.2     1  UNL1       -0.0509
     30 N         137.3892  139.6711  162.0576 N.3     1  UNL1       -0.2975
     31 H         137.1006  138.7227  162.2977 H       1  UNL1        0.1232
     32 C         139.2427  138.5708  160.6072 C.3     1  UNL1        0.1591
     33 C         139.9975  138.4795  159.3141 C.3     1  UNL1        0.1729
     34 O         139.6535  139.3971  158.1785 O.3     1  UNL1       -0.3511
     35 C         138.5548  140.4061  158.3359 C.3     1  UNL1        0.1437
     36 C         137.8000  140.4974  159.6289 C.3     1  UNL1        0.0503
     37 C         138.1440  139.5798  160.7646 C.3     1  UNL1        0.0865
     38 C         140.9687  137.6670  162.3260 C.3     1  UNL1        0.1742
     39 O         139.5867  137.6533  161.7428 O.3     1  UNL1       -0.3496
@<TRIPOS>BOND
     1    38    39    1
     2    39    32    1
     3    32    33    1
     4    33    34    1
     5    34    35    1
     6    35    36    1
     7    36    37    1
     8    37    30    1
     9     1    30    1
    10     1     2    1
    11     3     2    1
    12     3     4    1
    13     4     5    1
    14     5    25    1
    15    25    26   ar
    16    26    27   ar
    17    27    28   ar
    18    28    29   ar
    19     5     6    1
    20     6     7    1
    21     7     9    1
    22     9    10    2
    23     9    11   am
    24    11    12    1
    25    12    13    1
    26    13    14    1
    27    14    15   ar
    28    15    16   ar
    29    16    17   ar
    30    17    21    1
    31    21    22    1
    32    21    23    1
    33    21    24    1
    34    17    18   ar
    35    18    19   ar
    36    19    20    1
    37     7     8    1
    38    37    32    1
    39     8     1    1
    40     7     3    1
    41    20    11    1
    42    29    25   ar
    43    19    14   ar
    44    30    31    1
@<TRIPOS>MOLECULE
*****
 39 44 0 0 0
SMALL
GASTEIGER

@<TRIPOS>ATOM
      1 C         139.6128  142.8433  159.6368 C.3     1  UNL1        0.0546
      2 C         140.4362  143.9506  159.0487 C.3     1  UNL1        0.0180
      3 C         141.7182  143.3573  158.5445 C.3     1  UNL1        0.0310
      4 C         143.0195  143.6750  157.8694 C.3     1  UNL1        0.0932
      5 N         143.7927  142.3973  157.7286 N.pl3   1  UNL1       -0.2877
      6 C         142.9693  141.2900  158.3167 C.3     1  UNL1        0.1012
      7 C         141.6872  141.8833  158.8209 C.3     1  UNL1        0.0901
      8 C         140.3859  141.5657  159.4960 C.3     1  UNL1        0.0261
      9 C         141.6561  140.4094  159.0974 C.2     1  UNL1        0.2267
     10 O         141.3758  139.4433  157.9847 O.2     1  UNL1       -0.2748
     11 N         141.9054  139.9014  160.4866 N.am    1  UNL1       -0.2750
     12 C         141.8744  138.4275  160.7631 C.3     1  UNL1        0.1000
     13 C         142.1237  137.9196  162.1523 C.3     1  UNL1        0.0670
     14 C         142.4040  138.8856  163.2650 C.ar    1  UNL1        0.0583
     15 N         142.6533  138.3777  164.6542 N.ar    1  UNL1       -0.2484
     16 C         142.9337  139.3437  165.7669 C.ar    1  UNL1        0.1023
     17 C         142.9648  140.8178  165.4904 C.ar    1  UNL1        0.0902
     18 C         142.7155  141.3256  164.1012 C.ar    1  UNL1        0.0040
     19 C         142.4351  140.3596  162.9885 C.ar    1  UNL1        0.0113
     20 C         142.1858  140.8675  161.5994 C.3     1  UNL1        0.1213
     21 C         143.2451  141.7838  166.6031 C.3     1  UNL1        0.4200
     22 F         143.5255  142.7499  167.7158 F       1  UNL1       -0.1658
     23 F         144.0809  142.6124  165.6731 F       1  UNL1       -0.1658
     24 F         142.4094  140.9552  167.5331 F       1  UNL1       -0.1658
     25 C         145.1509  142.2524  157.1085 C.ar    1  UNL1        0.1631
     26 N         146.4251  142.8506  157.6268 N.ar    1  UNL1       -0.2225
     27 C         147.5350  142.4518  156.6999 C.ar    1  UNL1        0.1079
     28 C         146.9467  141.6071  155.6089 C.ar    1  UNL1        0.0588
     29 S         145.4732  141.4838  155.8614 S.2     1  UNL1       -0.0509
     30 N         138.2546  142.9882  160.2569 N.3     1  UNL1       -0.2975
     31 H         137.9456  143.9421  160.0696 H       1  UNL1        0.1232
     32 C         138.1281  143.9103  162.6825 C.3     1  UNL1        0.1591
     33 C         137.9463  143.6770  164.1531 C.3     1  UNL1        0.1729
     34 O         137.7091  142.2885  164.6686 O.3     1  UNL1       -0.3511
     35 C         137.6537  141.1332  163.7135 C.3     1  UNL1        0.1437
     36 C         137.8355  141.3664  162.2429 C.3     1  UNL1        0.0503
     37 C         138.0727  142.7550  161.7274 C.3     1  UNL1        0.0865
     38 C         139.7564  145.8589  162.1335 C.3     1  UNL1        0.1742
     39 O         138.3653  145.2988  162.1671 O.3     1  UNL1       -0.3496
@<TRIPOS>BOND
     1    38    39    1
     2    39    32    1
     3    32    33    1
     4    33    34    1
     5    34    35    1
     6    35    36    1
     7    36    37    1
     8    37    30    1
     9     1    30    1
    10     1     2    1
    11     3     2    1
    12     3     4    1
    13     4     5    1
    14     5    25    1
    15    25    26   ar
    16    26    27   ar
    17    27    28   ar
    18    28    29   ar
    19     5     6    1
    20     6     7    1
    21     7     9    1
    22     9    10    2
    23     9    11   am
    24    11    12    1
    25    12    13    1
    26    13    14    1
    27    14    15   ar
    28    15    16   ar
    29    16    17   ar
    30    17    21    1
    31    21    22    1
    32    21    23    1
    33    21    24    1
    34    17    18   ar
    35    18    19   ar
    36    19    20    1
    37     7     8    1
    38    37    32    1
    39     8     1    1
    40     7     3    1
    41    20    11    1
    42    29    25   ar
    43    19    14   ar
    44    30    31    1
