@<TRIPOS>MOLECULE
*****
 29 31 0 0 0
SMALL
GASTEIGER

@<TRIPOS>ATOM
      1 C         141.4196  139.0706  164.4540 C.ar    1  UNL1        0.0519
      2 C         141.1154  138.3158  163.1940 C.ar    1  UNL1        0.0853
      3 C         139.7852  137.6436  163.0250 C.ar    1  UNL1        0.1045
      4 N         138.7592  137.7260  164.1160 N.ar    1  UNL1       -0.2436
      5 C         139.0634  138.4808  165.3762 C.ar    1  UNL1        0.0825
      6 C         138.0374  138.5632  166.4672 C.ar    1  UNL1        0.0191
      7 C         138.3416  139.3179  167.7273 C.ar    1  UNL1        0.0016
      8 C         139.6718  139.9902  167.8963 C.ar    1  UNL1        0.0017
      9 C         140.6978  139.9078  166.8052 C.ar    1  UNL1        0.0028
     10 C         140.3936  139.1530  165.5452 C.ar    1  UNL1        0.0309
     11 C         139.9760  140.7450  169.1565 C.ar    1  UNL1        0.0226
     12 C         140.0545  142.2427  169.1332 C.ar    1  UNL1        0.0241
     13 C         140.3586  142.9975  170.3934 C.ar    1  UNL1        0.1222
     14 N         140.5843  142.2544  171.6767 N.ar    1  UNL1       -0.1464
     15 N         140.5058  140.7566  171.6999 N.ar    1  UNL1       -0.1464
     16 C         140.2016  140.0019  170.4398 C.ar    1  UNL1        0.1221
     17 C         142.1415  138.2334  162.1028 C.2     1  UNL1        0.2455
     18 N         141.7177  138.3217  160.6667 N.am    1  UNL1       -0.3252
     19 O         143.5912  138.0626  162.4479 O.2     1  UNL1       -0.2703
     20 H         140.7662  138.4338  160.4402 H       1  UNL1        0.1453
     21 H         142.3911  138.2675  159.9505 H       1  UNL1        0.1453
     22 N         142.7499  139.7429  164.6230 N.pl3   1  UNL1       -0.3325
     23 H         143.4766  139.2828  165.1019 H       1  UNL1        0.1468
     24 C         142.9727  141.1162  164.0624 C.3     1  UNL1        0.0870
     25 C         142.5183  142.3224  164.8297 C.3     1  UNL1        0.0195
     26 C         140.2557  143.3552  165.5804 C.3     1  UNL1        0.0001
     27 C         141.2141  142.9803  164.4891 C.3     1  UNL1        0.0017
     28 C         143.3682  142.8705  165.9375 C.3     1  UNL1        0.0017
     29 C         143.2833  142.2762  167.3122 C.3     1  UNL1        0.0001
@<TRIPOS>BOND
     1    26    27    1
     2    27    25    1
     3    25    28    1
     4    28    29    1
     5    25    24    1
     6    24    22    1
     7    22     1    1
     8     1     2   ar
     9     2    17    1
    10    17    18   am
    11    17    19    2
    12     2     3   ar
    13     3     4   ar
    14     4     5   ar
    15     5     6   ar
    16     6     7   ar
    17     7     8   ar
    18     8    11    1
    19    11    12   ar
    20    12    13   ar
    21    13    14   ar
    22    14    15   ar
    23    15    16   ar
    24     8     9   ar
    25     9    10   ar
    26    10     1   ar
    27    10     5   ar
    28    16    11   ar
    29    22    23    1
    30    18    20    1
    31    18    21    1
@<TRIPOS>MOLECULE
*****
 29 31 0 0 0
SMALL
GASTEIGER

@<TRIPOS>ATOM
      1 C         139.2189  139.6744  164.4170 C.ar    1  UNL1        0.0519
      2 C         139.4732  138.9770  163.1136 C.ar    1  UNL1        0.0853
      3 C         140.7642  138.2454  162.8938 C.ar    1  UNL1        0.1045
      4 N         141.8008  138.2112  163.9775 N.ar    1  UNL1       -0.2436
      5 C         141.5465  138.9087  165.2809 C.ar    1  UNL1        0.0825
      6 C         142.5830  138.8746  166.3645 C.ar    1  UNL1        0.0191
      7 C         142.3287  139.5720  167.6679 C.ar    1  UNL1        0.0016
      8 C         141.0378  140.3036  167.8876 C.ar    1  UNL1        0.0017
      9 C         140.0012  140.3378  166.8040 C.ar    1  UNL1        0.0028
     10 C         140.2555  139.6403  165.5007 C.ar    1  UNL1        0.0309
     11 C         140.7835  141.0011  169.1911 C.ar    1  UNL1        0.0226
     12 C         140.3329  142.4318  169.2008 C.ar    1  UNL1        0.0241
     13 C         140.0786  143.1293  170.5042 C.ar    1  UNL1        0.1222
     14 N         140.2749  142.3960  171.7980 N.ar    1  UNL1       -0.1464
     15 N         140.7255  140.9653  171.7883 N.ar    1  UNL1       -0.1464
     16 C         140.9798  140.2679  170.4849 C.ar    1  UNL1        0.1221
     17 C         138.4366  139.0111  162.0299 C.2     1  UNL1        0.2455
     18 N         137.7044  137.7574  161.6527 N.am    1  UNL1       -0.3252
     19 O         138.1323  140.2988  161.3234 O.2     1  UNL1       -0.2703
     20 H         137.9042  136.9123  162.1164 H       1  UNL1        0.1453
     21 H         137.0241  137.7798  160.9415 H       1  UNL1        0.1453
     22 N         137.9280  140.4060  164.6367 N.pl3   1  UNL1       -0.3325
     23 H         137.1704  139.9489  165.0684 H       1  UNL1        0.1468
     24 C         137.7913  141.8342  164.1987 C.3     1  UNL1        0.0870
     25 C         138.9906  142.7352  164.1941 C.3     1  UNL1        0.0195
     26 C         141.3216  142.3405  163.1169 C.3     1  UNL1        0.0001
     27 C         139.8919  142.7779  162.9959 C.3     1  UNL1        0.0017
     28 C         139.2884  143.5936  165.3877 C.3     1  UNL1        0.0017
     29 C         138.6139  144.9245  165.5414 C.3     1  UNL1        0.0001
@<TRIPOS>BOND
     1    26    27    1
     2    27    25    1
     3    25    28    1
     4    28    29    1
     5    25    24    1
     6    24    22    1
     7    22     1    1
     8     1     2   ar
     9     2    17    1
    10    17    18   am
    11    17    19    2
    12     2     3   ar
    13     3     4   ar
    14     4     5   ar
    15     5     6   ar
    16     6     7   ar
    17     7     8   ar
    18     8    11    1
    19    11    12   ar
    20    12    13   ar
    21    13    14   ar
    22    14    15   ar
    23    15    16   ar
    24     8     9   ar
    25     9    10   ar
    26    10     1   ar
    27    10     5   ar
    28    16    11   ar
    29    22    23    1
    30    18    20    1
    31    18    21    1
@<TRIPOS>MOLECULE
*****
 29 31 0 0 0
SMALL
GASTEIGER

@<TRIPOS>ATOM
      1 C         139.1702  142.8725  164.4220 C.ar    1  UNL1        0.0519
      2 C         138.4650  142.4666  163.1619 C.ar    1  UNL1        0.0853
      3 C         137.8858  141.0886  163.0371 C.ar    1  UNL1        0.1045
      4 N         138.0118  140.1164  164.1724 N.ar    1  UNL1       -0.2436
      5 C         138.7170  140.5222  165.4326 C.ar    1  UNL1        0.0825
      6 C         138.8430  139.5501  166.5679 C.ar    1  UNL1        0.0191
      7 C         139.5482  139.9559  167.8280 C.ar    1  UNL1        0.0016
      8 C         140.1275  141.3339  167.9528 C.ar    1  UNL1        0.0017
      9 C         140.0015  142.3061  166.8175 C.ar    1  UNL1        0.0028
     10 C         139.2963  141.9002  165.5574 C.ar    1  UNL1        0.0309
     11 C         140.8327  141.7397  169.2130 C.ar    1  UNL1        0.0226
     12 C         142.1392  142.4728  169.1385 C.ar    1  UNL1        0.0241
     13 C         142.8444  142.8786  170.3987 C.ar    1  UNL1        0.1222
     14 N         142.2431  142.5513  171.7334 N.ar    1  UNL1       -0.1464
     15 N         140.9366  141.8181  171.8078 N.ar    1  UNL1       -0.1464
     16 C         140.2314  141.4123  170.5476 C.ar    1  UNL1        0.1221
     17 C         138.3390  143.4388  162.0265 C.2     1  UNL1        0.2455
     18 N         138.5213  142.9695  160.6135 N.am    1  UNL1       -0.3252
     19 O         138.0307  144.8803  162.3041 O.2     1  UNL1       -0.2703
     20 H         138.7237  142.0234  160.4313 H       1  UNL1        0.1453
     21 H         138.4386  143.6075  159.8684 H       1  UNL1        0.1453
     22 N         139.7495  144.2505  164.5468 N.pl3   1  UNL1       -0.3325
     23 H         139.2284  144.9663  164.9772 H       1  UNL1        0.1468
     24 C         141.1227  144.5377  164.0158 C.3     1  UNL1        0.0870
     25 C         142.1156  143.4239  163.8623 C.3     1  UNL1        0.0195
     26 C         141.8864  141.2829  162.4085 C.3     1  UNL1        0.0001
     27 C         142.2642  142.7284  162.5416 C.3     1  UNL1        0.0017
     28 C         142.9599  143.0056  165.0294 C.3     1  UNL1        0.0017
     29 C         144.3345  143.5799  165.2047 C.3     1  UNL1        0.0001
@<TRIPOS>BOND
     1    26    27    1
     2    27    25    1
     3    25    28    1
     4    28    29    1
     5    25    24    1
     6    24    22    1
     7    22     1    1
     8     1     2   ar
     9     2    17    1
    10    17    18   am
    11    17    19    2
    12     2     3   ar
    13     3     4   ar
    14     4     5   ar
    15     5     6   ar
    16     6     7   ar
    17     7     8   ar
    18     8    11    1
    19    11    12   ar
    20    12    13   ar
    21    13    14   ar
    22    14    15   ar
    23    15    16   ar
    24     8     9   ar
    25     9    10   ar
    26    10     1   ar
    27    10     5   ar
    28    16    11   ar
    29    22    23    1
    30    18    20    1
    31    18    21    1
@<TRIPOS>MOLECULE
*****
 29 31 0 0 0
SMALL
GASTEIGER

@<TRIPOS>ATOM
      1 C         139.8605  143.3492  164.2960 C.ar    1  UNL1        0.0519
      2 C         140.2166  143.7527  162.8959 C.ar    1  UNL1        0.0853
      3 C         141.6534  143.7809  162.4660 C.ar    1  UNL1        0.1045
      4 N         142.7341  143.4056  163.4361 N.ar    1  UNL1       -0.2436
      5 C         142.3780  143.0021  164.8363 C.ar    1  UNL1        0.0825
      6 C         143.4587  142.6267  165.8064 C.ar    1  UNL1        0.0191
      7 C         143.1026  142.2232  167.2065 C.ar    1  UNL1        0.0016
      8 C         141.6658  142.1950  167.6365 C.ar    1  UNL1        0.0017
      9 C         140.5851  142.5704  166.6663 C.ar    1  UNL1        0.0028
     10 C         140.9412  142.9739  165.2662 C.ar    1  UNL1        0.0309
     11 C         141.3097  141.7915  169.0367 C.ar    1  UNL1        0.0226
     12 C         140.5041  140.5493  169.2773 C.ar    1  UNL1        0.0241
     13 C         140.1480  140.1458  170.6775 C.ar    1  UNL1        0.1222
     14 N         140.5976  140.9845  171.8370 N.ar    1  UNL1       -0.1464
     15 N         141.4032  142.2267  171.5963 N.ar    1  UNL1       -0.1464
     16 C         141.7593  142.6302  170.1962 C.ar    1  UNL1        0.1221
     17 C         139.1359  144.1281  161.9257 C.2     1  UNL1        0.2455
     18 N         139.1936  143.6337  160.5107 N.am    1  UNL1       -0.3252
     19 O         137.9976  144.9978  162.3705 O.2     1  UNL1       -0.2703
     20 H         139.9407  143.0629  160.2187 H       1  UNL1        0.1453
     21 H         138.4843  143.8800  159.8739 H       1  UNL1        0.1453
     22 N         138.4237  143.3210  164.7260 N.pl3   1  UNL1       -0.3325
     23 H         138.0260  144.1069  165.1657 H       1  UNL1        0.1468
     24 C         137.5929  142.0954  164.4859 C.3     1  UNL1        0.0870
     25 C         138.2389  140.8378  163.9846 C.3     1  UNL1        0.0195
     26 C         137.9518  139.1111  162.0647 C.3     1  UNL1        0.0001
     27 C         138.2167  140.5156  162.5198 C.3     1  UNL1        0.0017
     28 C         138.9072  139.9024  164.9482 C.3     1  UNL1        0.0017
     29 C         138.1369  139.3440  166.1078 C.3     1  UNL1        0.0001
@<TRIPOS>BOND
     1    26    27    1
     2    27    25    1
     3    25    28    1
     4    28    29    1
     5    25    24    1
     6    24    22    1
     7    22     1    1
     8     1     2   ar
     9     2    17    1
    10    17    18   am
    11    17    19    2
    12     2     3   ar
    13     3     4   ar
    14     4     5   ar
    15     5     6   ar
    16     6     7   ar
    17     7     8   ar
    18     8    11    1
    19    11    12   ar
    20    12    13   ar
    21    13    14   ar
    22    14    15   ar
    23    15    16   ar
    24     8     9   ar
    25     9    10   ar
    26    10     1   ar
    27    10     5   ar
    28    16    11   ar
    29    22    23    1
    30    18    20    1
    31    18    21    1
@<TRIPOS>MOLECULE
*****
 29 31 0 0 0
SMALL
GASTEIGER

@<TRIPOS>ATOM
      1 C         141.6670  138.9958  164.3468 C.ar    1  UNL1        0.0519
      2 C         142.1432  139.0126  162.9245 C.ar    1  UNL1        0.0853
      3 C         143.0535  140.1068  162.4512 C.ar    1  UNL1        0.1045
      4 N         143.4877  141.1842  163.4002 N.ar    1  UNL1       -0.2436
      5 C         143.0115  141.1675  164.8226 C.ar    1  UNL1        0.0825
      6 C         143.4456  142.2449  165.7716 C.ar    1  UNL1        0.0191
      7 C         142.9694  142.2281  167.1939 C.ar    1  UNL1        0.0016
      8 C         142.0591  141.1339  167.6672 C.ar    1  UNL1        0.0017
      9 C         141.6250  140.0565  166.7182 C.ar    1  UNL1        0.0028
     10 C         142.1012  140.0733  165.2959 C.ar    1  UNL1        0.0309
     11 C         141.5829  141.1171  169.0895 C.ar    1  UNL1        0.0226
     12 C         140.5891  140.0860  169.5356 C.ar    1  UNL1        0.0241
     13 C         140.1129  140.0693  170.9580 C.ar    1  UNL1        0.1222
     14 N         140.6306  141.0837  171.9342 N.ar    1  UNL1       -0.1464
     15 N         141.6245  142.1148  171.4880 N.ar    1  UNL1       -0.1464
     16 C         142.1007  142.1315  170.0657 C.ar    1  UNL1        0.1221
     17 C         141.7091  137.9351  161.9754 C.2     1  UNL1        0.2455
     18 N         142.7331  137.1685  161.1920 N.am    1  UNL1       -0.3252
     19 O         140.2510  137.6243  161.8098 O.2     1  UNL1       -0.2703
     20 H         143.6900  137.3725  161.3007 H       1  UNL1        0.1453
     21 H         142.4482  136.4614  160.5691 H       1  UNL1        0.1453
     22 N         140.7567  137.9016  164.8201 N.pl3   1  UNL1       -0.3325
     23 H         141.1350  137.0827  165.2146 H       1  UNL1        0.1468
     24 C         139.2700  138.0550  164.6924 C.3     1  UNL1        0.0870
     25 C         138.5538  139.1078  165.4854 C.3     1  UNL1        0.0195
     26 C         137.8627  140.5549  163.4413 C.3     1  UNL1        0.0001
     27 C         138.2855  140.4522  164.8769 C.3     1  UNL1        0.0017
     28 C         138.1060  138.8159  166.8870 C.3     1  UNL1        0.0017
     29 C         137.2729  137.6012  167.1705 C.3     1  UNL1        0.0001
@<TRIPOS>BOND
     1    26    27    1
     2    27    25    1
     3    25    28    1
     4    28    29    1
     5    25    24    1
     6    24    22    1
     7    22     1    1
     8     1     2   ar
     9     2    17    1
    10    17    18   am
    11    17    19    2
    12     2     3   ar
    13     3     4   ar
    14     4     5   ar
    15     5     6   ar
    16     6     7   ar
    17     7     8   ar
    18     8    11    1
    19    11    12   ar
    20    12    13   ar
    21    13    14   ar
    22    14    15   ar
    23    15    16   ar
    24     8     9   ar
    25     9    10   ar
    26    10     1   ar
    27    10     5   ar
    28    16    11   ar
    29    22    23    1
    30    18    20    1
    31    18    21    1
@<TRIPOS>MOLECULE
*****
 29 31 0 0 0
SMALL
GASTEIGER

@<TRIPOS>ATOM
      1 C         141.1797  141.7132  167.6556 C.ar    1  UNL1        0.0519
      2 C         141.5283  141.7608  169.1137 C.ar    1  UNL1        0.0853
      3 C         140.7839  140.9005  170.0913 C.ar    1  UNL1        0.1045
      4 N         139.6908  139.9926  169.6107 N.ar    1  UNL1       -0.2436
      5 C         139.3422  139.9450  168.1526 C.ar    1  UNL1        0.0825
      6 C         138.2491  139.0371  167.6720 C.ar    1  UNL1        0.0191
      7 C         137.9005  138.9896  166.2139 C.ar    1  UNL1        0.0016
      8 C         138.6449  139.8499  165.2363 C.ar    1  UNL1        0.0017
      9 C         139.7380  140.7578  165.7168 C.ar    1  UNL1        0.0028
     10 C         140.0866  140.8053  167.1750 C.ar    1  UNL1        0.0309
     11 C         138.2963  139.8023  163.7781 C.ar    1  UNL1        0.0226
     12 C         138.5112  138.5403  162.9964 C.ar    1  UNL1        0.0241
     13 C         138.1625  138.4927  161.5382 C.ar    1  UNL1        0.1222
     14 N         137.5989  139.7071  160.8618 N.ar    1  UNL1       -0.1464
     15 N         137.3840  140.9692  161.6436 N.ar    1  UNL1       -0.1464
     16 C         137.7327  141.0167  163.1017 C.ar    1  UNL1        0.1221
     17 C         142.6214  142.6687  169.5943 C.2     1  UNL1        0.2455
     18 N         142.3709  143.6023  170.7413 N.am    1  UNL1       -0.3252
     19 O         143.9650  142.6430  168.9279 O.2     1  UNL1       -0.2703
     20 H         141.4890  143.6192  171.1786 H       1  UNL1        0.1453
     21 H         143.0883  144.1982  171.0567 H       1  UNL1        0.1453
     22 N         141.9241  142.5735  166.6780 N.pl3   1  UNL1       -0.3325
     23 H         141.7379  143.5391  166.6306 H       1  UNL1        0.1468
     24 C         142.9523  141.9626  165.7725 C.3     1  UNL1        0.0870
     25 C         143.6729  142.8168  164.7720 C.3     1  UNL1        0.0195
     26 C         145.6092  141.7646  163.3959 C.3     1  UNL1        0.0001
     27 C         145.1410  142.6192  164.5362 C.3     1  UNL1        0.0017
     28 C         142.9253  143.8686  164.0071 C.3     1  UNL1        0.0017
     29 C         143.6287  145.1183  163.5672 C.3     1  UNL1        0.0001
@<TRIPOS>BOND
     1    26    27    1
     2    27    25    1
     3    25    28    1
     4    28    29    1
     5    25    24    1
     6    24    22    1
     7    22     1    1
     8     1     2   ar
     9     2    17    1
    10    17    18   am
    11    17    19    2
    12     2     3   ar
    13     3     4   ar
    14     4     5   ar
    15     5     6   ar
    16     6     7   ar
    17     7     8   ar
    18     8    11    1
    19    11    12   ar
    20    12    13   ar
    21    13    14   ar
    22    14    15   ar
    23    15    16   ar
    24     8     9   ar
    25     9    10   ar
    26    10     1   ar
    27    10     5   ar
    28    16    11   ar
    29    22    23    1
    30    18    20    1
    31    18    21    1
@<TRIPOS>MOLECULE
*****
 29 31 0 0 0
SMALL
GASTEIGER

@<TRIPOS>ATOM
      1 C         140.6671  141.7357  167.7802 C.ar    1  UNL1        0.0519
      2 C         140.5350  142.0849  169.2330 C.ar    1  UNL1        0.0853
      3 C         139.5891  141.3151  170.1064 C.ar    1  UNL1        0.1045
      4 N         138.7753  140.1962  169.5270 N.ar    1  UNL1       -0.2436
      5 C         138.9075  139.8469  168.0741 C.ar    1  UNL1        0.0825
      6 C         138.0937  138.7279  167.4948 C.ar    1  UNL1        0.0191
      7 C         138.2259  138.3787  166.0420 C.ar    1  UNL1        0.0016
      8 C         139.1718  139.1485  165.1686 C.ar    1  UNL1        0.0017
      9 C         139.9855  140.2674  165.7480 C.ar    1  UNL1        0.0028
     10 C         139.8534  140.6166  167.2008 C.ar    1  UNL1        0.0309
     11 C         139.3039  138.7992  163.7158 C.ar    1  UNL1        0.0226
     12 C         138.2563  139.2446  162.7391 C.ar    1  UNL1        0.0241
     13 C         138.3884  138.8954  161.2862 C.ar    1  UNL1        0.1222
     14 N         139.5682  138.1007  160.8102 N.ar    1  UNL1       -0.1464
     15 N         140.6159  137.6552  161.7871 N.ar    1  UNL1       -0.1464
     16 C         140.4837  138.0045  163.2398 C.ar    1  UNL1        0.1221
     17 C         141.3487  143.2039  169.8124 C.2     1  UNL1        0.2455
     18 N         140.6727  144.4584  170.2807 N.am    1  UNL1       -0.3252
     19 O         142.8384  143.0684  169.9236 O.2     1  UNL1       -0.2703
     20 H         139.6949  144.5473  170.2077 H       1  UNL1        0.1453
     21 H         141.2068  145.1928  170.6610 H       1  UNL1        0.1453
     22 N         141.6130  142.5054  166.9069 N.pl3   1  UNL1       -0.3325
     23 H         141.3026  143.3129  166.4369 H       1  UNL1        0.1468
     24 C         143.0319  142.0449  166.7496 C.3     1  UNL1        0.0870
     25 C         143.6719  142.0372  165.3930 C.3     1  UNL1        0.0195
     26 C         143.7844  144.3854  164.2871 C.3     1  UNL1        0.0001
     27 C         144.4721  143.2202  164.9345 C.3     1  UNL1        0.0017
     28 C         143.5117  140.8465  164.4948 C.3     1  UNL1        0.0017
     29 C         143.5205  139.4631  165.0746 C.3     1  UNL1        0.0001
@<TRIPOS>BOND
     1    26    27    1
     2    27    25    1
     3    25    28    1
     4    28    29    1
     5    25    24    1
     6    24    22    1
     7    22     1    1
     8     1     2   ar
     9     2    17    1
    10    17    18   am
    11    17    19    2
    12     2     3   ar
    13     3     4   ar
    14     4     5   ar
    15     5     6   ar
    16     6     7   ar
    17     7     8   ar
    18     8    11    1
    19    11    12   ar
    20    12    13   ar
    21    13    14   ar
    22    14    15   ar
    23    15    16   ar
    24     8     9   ar
    25     9    10   ar
    26    10     1   ar
    27    10     5   ar
    28    16    11   ar
    29    22    23    1
    30    18    20    1
    31    18    21    1
@<TRIPOS>MOLECULE
*****
 29 31 0 0 0
SMALL
GASTEIGER

@<TRIPOS>ATOM
      1 C         139.8468  139.5136  164.3734 C.ar    1  UNL1        0.0519
      2 C         139.4056  139.4841  162.9401 C.ar    1  UNL1        0.0853
      3 C         139.0019  140.7551  162.2534 C.ar    1  UNL1        0.1045
      4 N         139.0394  142.0556  163.0000 N.ar    1  UNL1       -0.2436
      5 C         139.4806  142.0851  164.4333 C.ar    1  UNL1        0.0825
      6 C         139.5181  143.3855  165.1799 C.ar    1  UNL1        0.0191
      7 C         139.9594  143.4149  166.6132 C.ar    1  UNL1        0.0016
      8 C         140.3631  142.1439  167.2999 C.ar    1  UNL1        0.0017
      9 C         140.3256  140.8435  166.5534 C.ar    1  UNL1        0.0028
     10 C         139.8843  140.8141  165.1201 C.ar    1  UNL1        0.0309
     11 C         140.8043  142.1734  168.7333 C.ar    1  UNL1        0.0226
     12 C         142.1989  142.6033  169.0801 C.ar    1  UNL1        0.0241
     13 C         142.6402  142.6328  170.5134 C.ar    1  UNL1        0.1222
     14 N         141.6867  142.2324  171.6000 N.ar    1  UNL1       -0.1464
     15 N         140.2921  141.8025  171.2532 N.ar    1  UNL1       -0.1464
     16 C         139.8509  141.7731  169.8199 C.ar    1  UNL1        0.1221
     17 C         139.3680  138.1836  162.1935 C.2     1  UNL1        0.2455
     18 N         138.0506  137.5645  161.8314 N.am    1  UNL1       -0.3252
     19 O         140.6478  137.5024  161.8089 O.2     1  UNL1       -0.2703
     20 H         137.2106  138.0116  162.0839 H       1  UNL1        0.1453
     21 H         138.0260  136.7109  161.3414 H       1  UNL1        0.1453
     22 N         140.2505  138.2426  165.0602 N.pl3   1  UNL1       -0.3325
     23 H         139.6100  137.7721  165.6412 H       1  UNL1        0.1468
     24 C         141.6302  137.6884  164.8616 C.3     1  UNL1        0.0870
     25 C         142.8293  138.5149  165.2209 C.3     1  UNL1        0.0195
     26 C         144.0217  139.0295  162.9707 C.3     1  UNL1        0.0001
     27 C         143.3780  139.5069  164.2387 C.3     1  UNL1        0.0017
     28 C         143.4796  138.3494  166.5625 C.3     1  UNL1        0.0017
     29 C         142.9456  139.0918  167.7515 C.3     1  UNL1        0.0001
@<TRIPOS>BOND
     1    26    27    1
     2    27    25    1
     3    25    28    1
     4    28    29    1
     5    25    24    1
     6    24    22    1
     7    22     1    1
     8     1     2   ar
     9     2    17    1
    10    17    18   am
    11    17    19    2
    12     2     3   ar
    13     3     4   ar
    14     4     5   ar
    15     5     6   ar
    16     6     7   ar
    17     7     8   ar
    18     8    11    1
    19    11    12   ar
    20    12    13   ar
    21    13    14   ar
    22    14    15   ar
    23    15    16   ar
    24     8     9   ar
    25     9    10   ar
    26    10     1   ar
    27    10     5   ar
    28    16    11   ar
    29    22    23    1
    30    18    20    1
    31    18    21    1
@<TRIPOS>MOLECULE
*****
 29 31 0 0 0
SMALL
GASTEIGER

@<TRIPOS>ATOM
      1 C         139.8113  142.8279  164.0233 C.ar    1  UNL1        0.0519
      2 C         139.6510  143.5660  162.7274 C.ar    1  UNL1        0.0853
      3 C         140.8427  144.1991  162.0725 C.ar    1  UNL1        0.1045
      4 N         142.1948  144.0941  162.7134 N.ar    1  UNL1       -0.2436
      5 C         142.3552  143.3559  164.0094 C.ar    1  UNL1        0.0825
      6 C         143.7073  143.2508  164.6503 C.ar    1  UNL1        0.0191
      7 C         143.8676  142.5127  165.9462 C.ar    1  UNL1        0.0016
      8 C         142.6759  141.8796  166.6011 C.ar    1  UNL1        0.0017
      9 C         141.3238  141.9846  165.9602 C.ar    1  UNL1        0.0028
     10 C         141.1635  142.7228  164.6643 C.ar    1  UNL1        0.0309
     11 C         142.8363  141.1414  167.8971 C.ar    1  UNL1        0.0226
     12 C         143.1484  141.8950  169.1558 C.ar    1  UNL1        0.0241
     13 C         143.3088  141.1568  170.4518 C.ar    1  UNL1        0.1222
     14 N         143.1570  139.6650  170.4889 N.ar    1  UNL1       -0.1464
     15 N         142.8449  138.9113  169.2300 N.ar    1  UNL1       -0.1464
     16 C         142.6845  139.6495  167.9342 C.ar    1  UNL1        0.1221
     17 C         138.2989  143.6711  162.0864 C.2     1  UNL1        0.2455
     18 N         137.2880  144.6409  162.6227 N.am    1  UNL1       -0.3252
     19 O         137.9577  142.8065  160.9092 O.2     1  UNL1       -0.2703
     20 H         137.5119  145.2084  163.3954 H       1  UNL1        0.1453
     21 H         136.4006  144.7098  162.2021 H       1  UNL1        0.1453
     22 N         138.6196  142.1947  164.6783 N.pl3   1  UNL1       -0.3325
     23 H         138.1413  142.6706  165.3952 H       1  UNL1        0.1468
     24 C         138.1567  140.8366  164.2408 C.3     1  UNL1        0.0870
     25 C         138.6916  139.6085  164.9158 C.3     1  UNL1        0.0195
     26 C         138.9418  138.3609  162.6507 C.3     1  UNL1        0.0001
     27 C         139.3047  138.5103  164.0984 C.3     1  UNL1        0.0017
     28 C         138.6135  139.4786  166.4081 C.3     1  UNL1        0.0017
     29 C         137.6741  138.4860  167.0264 C.3     1  UNL1        0.0001
@<TRIPOS>BOND
     1    26    27    1
     2    27    25    1
     3    25    28    1
     4    28    29    1
     5    25    24    1
     6    24    22    1
     7    22     1    1
     8     1     2   ar
     9     2    17    1
    10    17    18   am
    11    17    19    2
    12     2     3   ar
    13     3     4   ar
    14     4     5   ar
    15     5     6   ar
    16     6     7   ar
    17     7     8   ar
    18     8    11    1
    19    11    12   ar
    20    12    13   ar
    21    13    14   ar
    22    14    15   ar
    23    15    16   ar
    24     8     9   ar
    25     9    10   ar
    26    10     1   ar
    27    10     5   ar
    28    16    11   ar
    29    22    23    1
    30    18    20    1
    31    18    21    1
