@<TRIPOS>MOLECULE
*****
 41 47 0 0 0
SMALL
GASTEIGER

@<TRIPOS>ATOM
      1 C         140.8342  140.9983  159.7295 C.3     1  UNL1        0.1707
      2 N         141.1862  139.9039  158.7660 N.3     1  UNL1       -0.2797
      3 C         142.4957  139.1839  158.8947 C.3     1  UNL1        0.1167
      4 C         143.4534  139.5583  159.9868 C.3     1  UNL1        0.0511
      5 C         143.1014  140.6527  160.9504 C.2     1  UNL1       -0.0037
      6 C         141.7918  141.3727  160.8217 C.2     1  UNL1        0.0800
      7 N         141.7197  142.4017  161.9107 N.2     1  UNL1       -0.2519
      8 C         142.9847  142.3176  162.7124 C.2     1  UNL1        0.0627
      9 C         143.4693  143.0857  163.9062 C.3     1  UNL1        0.0717
     10 C         144.8079  142.7729  164.5064 C.2     1  UNL1       -0.0198
     11 C         145.6618  141.6919  163.9129 C.2     1  UNL1       -0.0042
     12 C         145.1772  140.9238  162.7191 C.2     1  UNL1        0.0006
     13 C         143.8387  141.2367  162.1189 C.2     1  UNL1        0.0111
     14 H         141.1669  140.3156  157.8330 H       1  UNL1        0.1246
     15 C         142.8478  138.0895  157.9311 C.ar    1  UNL1        0.1319
     16 N         142.5584  136.6288  158.1120 N.ar    1  UNL1       -0.2282
     17 C         143.0827  135.9002  156.9103 C.ar    1  UNL1        0.1171
     18 C         143.6961  136.9105  155.9867 C.ar    1  UNL1        0.0942
     19 N         143.5509  138.2636  156.6176 N.ar    1  UNL1       -0.3385
     20 H         143.8624  139.1162  156.2366 H       1  UNL1        0.1672
     21 C         143.0069  134.4208  156.6737 C.ar    1  UNL1        0.1006
     22 C         141.9700  133.8620  155.7449 C.ar    1  UNL1        0.0230
     23 C         141.8942  132.3828  155.5082 C.ar    1  UNL1        0.0328
     24 C         142.8552  131.4623  156.2004 C.ar    1  UNL1        0.1592
     25 F         142.7794  129.9830  155.9638 F       1  UNL1       -0.2025
     26 C         143.8921  132.0211  157.1292 C.ar    1  UNL1        0.1284
     27 N         143.9679  133.5004  157.3659 N.ar    1  UNL1       -0.2399
     28 N         138.0678  141.4527  157.0451 N.ar    1  UNL1       -0.2497
     29 C         139.4528  141.7171  157.5569 C.ar    1  UNL1        0.0944
     30 C         139.6063  141.0049  158.8681 C.ar    1  UNL1        0.0439
     31 C         138.3161  140.3002  159.1666 C.ar    1  UNL1        0.1194
     32 N         137.3653  140.5770  158.0400 N.ar    1  UNL1       -0.1679
     33 C         136.8650  143.3368  155.7210 C.3     1  UNL1        0.0284
     34 C         137.4872  141.9726  155.7635 C.3     1  UNL1        0.1276
     35 C         140.0558  142.0951  160.3939 C.ar    1  UNL1        0.2487
     36 N         139.9763  143.5214  159.9369 N.ar    1  UNL1       -0.1088
     37 N         139.0915  144.2657  160.8926 N.ar    1  UNL1       -0.1009
     38 C         138.6243  143.2993  161.9403 C.ar    1  UNL1        0.2781
     39 O         139.2202  141.9577  161.6321 O.2     1  UNL1       -0.4128
     40 S         137.7199  143.6184  163.0936 S.3     1  UNL1       -0.0544
     41 C         138.2496  144.3764  164.2747 C.3     1  UNL1        0.0789
@<TRIPOS>BOND
     1    33    34    1
     2    34    28    1
     3    28    29   ar
     4    29    30   ar
     5     1    30    1
     6     1    35    1
     7    35    36   ar
     8    36    37   ar
     9    37    38   ar
    10    38    40    1
    11    40    41    1
    12    38    39   ar
    13     1     2    1
    14     2     3    1
    15     3    15    1
    16    15    16   ar
    17    16    17   ar
    18    17    21    1
    19    21    22   ar
    20    22    23   ar
    21    23    24   ar
    22    24    25    1
    23    24    26   ar
    24    26    27   ar
    25    17    18   ar
    26    18    19   ar
    27     3     4    1
    28     4     5    1
    29     5     6    2
    30     6     7    1
    31     7     8    2
    32     8     9    1
    33     9    10    1
    34    10    11    2
    35    11    12    1
    36    12    13    2
    37    30    31   ar
    38    31    32   ar
    39    32    28   ar
    40     6     1    1
    41    13     8    1
    42    39    35   ar
    43    19    15   ar
    44    13     5    1
    45    27    21   ar
    46     2    14    1
    47    19    20    1
@<TRIPOS>MOLECULE
*****
 41 47 0 0 0
SMALL
GASTEIGER

@<TRIPOS>ATOM
      1 C         142.3893  142.6770  160.2662 C.3     1  UNL1        0.1707
      2 N         141.8766  143.2957  158.9995 N.3     1  UNL1       -0.2797
      3 C         140.7023  144.2280  159.0420 C.3     1  UNL1        0.1167
      4 C         140.0406  144.5416  160.3512 C.3     1  UNL1        0.0511
      5 C         140.5533  143.9229  161.6178 C.2     1  UNL1       -0.0037
      6 C         141.7276  142.9907  161.5753 C.2     1  UNL1        0.0800
      7 N         142.0087  142.5351  162.9765 N.2     1  UNL1       -0.2519
      8 C         141.0081  143.1858  163.8851 C.2     1  UNL1        0.0627
      9 C         140.7998  143.1080  165.3685 C.3     1  UNL1        0.0717
     10 C         139.6920  143.8881  166.0121 C.2     1  UNL1       -0.0198
     11 C         138.7925  144.7458  165.1724 C.2     1  UNL1       -0.0042
     12 C         139.0008  144.8235  163.6890 C.2     1  UNL1        0.0006
     13 C         140.1086  144.0435  163.0453 C.2     1  UNL1        0.0111
     14 H         141.6204  142.5275  158.3793 H       1  UNL1        0.1246
     15 C         140.1896  144.8467  157.7753 C.ar    1  UNL1        0.1319
     16 N         140.3396  146.2838  157.3725 N.ar    1  UNL1       -0.2282
     17 C         139.6796  146.4622  156.0374 C.ar    1  UNL1        0.1171
     18 C         139.1217  145.1354  155.6151 C.ar    1  UNL1        0.0942
     19 N         139.4369  144.1370  156.6892 N.ar    1  UNL1       -0.3385
     20 H         139.1926  143.1833  156.6825 H       1  UNL1        0.1672
     21 C         139.5928  147.7427  155.2609 C.ar    1  UNL1        0.1006
     22 C         140.1877  147.8282  153.8865 C.ar    1  UNL1        0.0230
     23 C         140.1009  149.1086  153.1100 C.ar    1  UNL1        0.0328
     24 C         139.4192  150.3035  153.7079 C.ar    1  UNL1        0.1592
     25 F         139.3324  151.5840  152.9314 F       1  UNL1       -0.2025
     26 C         138.8244  150.2180  155.0822 C.ar    1  UNL1        0.1284
     27 N         138.9111  148.9376  155.8587 N.ar    1  UNL1       -0.2399
     28 N         145.0990  141.8310  157.6191 N.ar    1  UNL1       -0.2497
     29 C         144.3673  142.8228  158.4742 C.ar    1  UNL1        0.0944
     30 C         143.3442  142.0761  159.2777 C.ar    1  UNL1        0.0439
     31 C         143.4436  140.6229  158.9193 C.ar    1  UNL1        0.1194
     32 N         144.5282  140.4715  157.8942 N.ar    1  UNL1       -0.1679
     33 C         147.4291  142.8726  157.1332 C.3     1  UNL1        0.0284
     34 C         146.2072  142.1439  156.6577 C.3     1  UNL1        0.1276
     35 C         143.2336  141.8497  161.1896 C.ar    1  UNL1        0.2487
     36 N         144.6471  142.1457  161.5947 N.ar    1  UNL1       -0.1088
     37 N         145.0996  141.0599  162.5255 N.ar    1  UNL1       -0.1009
     38 C         143.9657  140.0929  162.6956 C.ar    1  UNL1        0.2781
     39 O         142.8124  140.5809  161.8699 O.2     1  UNL1       -0.4128
     40 S         143.9822  138.8550  163.5427 S.3     1  UNL1       -0.0544
     41 C         144.1776  138.9637  165.0259 C.3     1  UNL1        0.0789
@<TRIPOS>BOND
     1    33    34    1
     2    34    28    1
     3    28    29   ar
     4    29    30   ar
     5     1    30    1
     6     1    35    1
     7    35    36   ar
     8    36    37   ar
     9    37    38   ar
    10    38    40    1
    11    40    41    1
    12    38    39   ar
    13     1     2    1
    14     2     3    1
    15     3    15    1
    16    15    16   ar
    17    16    17   ar
    18    17    21    1
    19    21    22   ar
    20    22    23   ar
    21    23    24   ar
    22    24    25    1
    23    24    26   ar
    24    26    27   ar
    25    17    18   ar
    26    18    19   ar
    27     3     4    1
    28     4     5    1
    29     5     6    2
    30     6     7    1
    31     7     8    2
    32     8     9    1
    33     9    10    1
    34    10    11    2
    35    11    12    1
    36    12    13    2
    37    30    31   ar
    38    31    32   ar
    39    32    28   ar
    40     6     1    1
    41    13     8    1
    42    39    35   ar
    43    19    15   ar
    44    13     5    1
    45    27    21   ar
    46     2    14    1
    47    19    20    1
@<TRIPOS>MOLECULE
*****
 41 47 0 0 0
SMALL
GASTEIGER

@<TRIPOS>ATOM
      1 C         139.5198  140.9947  159.4915 C.3     1  UNL1        0.1707
      2 N         139.7555  139.6677  158.8332 N.3     1  UNL1       -0.2797
      3 C         140.2448  139.6098  157.4164 C.3     1  UNL1        0.1167
      4 C         140.4984  140.8789  156.6580 C.3     1  UNL1        0.0511
      5 C         140.2627  142.2059  157.3164 C.2     1  UNL1       -0.0037
      6 C         139.7733  142.2638  158.7331 C.2     1  UNL1        0.0800
      7 N         139.6319  143.7072  159.1160 N.2     1  UNL1       -0.2519
      8 C         140.0339  144.5413  157.9359 C.2     1  UNL1        0.0627
      9 C         140.0952  146.0259  157.7304 C.3     1  UNL1        0.0717
     10 C         140.5464  146.5826  156.4127 C.2     1  UNL1       -0.0198
     11 C         140.9362  145.6547  155.3004 C.2     1  UNL1       -0.0042
     12 C         140.8749  144.1701  155.5059 C.2     1  UNL1        0.0006
     13 C         140.4237  143.6134  156.8236 C.2     1  UNL1        0.0111
     14 H         138.8687  139.1644  158.8592 H       1  UNL1        0.1246
     15 C         140.4806  138.2827  156.7579 C.ar    1  UNL1        0.1319
     16 N         141.6059  137.3374  157.0577 N.ar    1  UNL1       -0.2282
     17 C         141.4533  136.1385  156.1692 C.ar    1  UNL1        0.1171
     18 C         140.2335  136.3429  155.3204 C.ar    1  UNL1        0.0942
     19 N         139.6324  137.6681  155.6843 N.ar    1  UNL1       -0.3385
     20 H         138.8232  138.0649  155.2880 H       1  UNL1        0.1672
     21 C         142.3610  134.9448  156.1355 C.ar    1  UNL1        0.1006
     22 C         142.3238  134.0072  154.9652 C.ar    1  UNL1        0.0230
     23 C         143.2315  132.8135  154.9315 C.ar    1  UNL1        0.0328
     24 C         144.1764  132.5574  156.0679 C.ar    1  UNL1        0.1592
     25 F         145.0841  131.3637  156.0342 F       1  UNL1       -0.2025
     26 C         144.2135  133.4950  157.2382 C.ar    1  UNL1        0.1284
     27 N         143.3059  134.6887  157.2720 N.ar    1  UNL1       -0.2399
     28 N         139.2678  138.6319  162.5606 N.ar    1  UNL1       -0.2497
     29 C         140.0735  139.4878  161.6288 C.ar    1  UNL1        0.0944
     30 C         139.1383  140.0756  160.6139 C.ar    1  UNL1        0.0439
     31 C         137.7546  139.5830  160.9186 C.ar    1  UNL1        0.1194
     32 N         137.8347  138.6908  162.1217 N.ar    1  UNL1       -0.1679
     33 C         138.9785  137.7104  164.9725 C.3     1  UNL1        0.0284
     34 C         139.8015  137.8538  163.7267 C.3     1  UNL1        0.1276
     35 C         139.1515  142.0026  160.5397 C.ar    1  UNL1        0.2487
     36 N         137.8033  142.6345  160.7201 N.ar    1  UNL1       -0.1088
     37 N         137.8855  143.5780  161.8835 N.ar    1  UNL1       -0.1009
     38 C         139.2847  143.5290  162.4219 C.ar    1  UNL1        0.2781
     39 O         140.0671  142.5553  161.5914 O.2     1  UNL1       -0.4128
     40 S         139.8092  144.3156  163.5865 S.3     1  UNL1       -0.0544
     41 C         138.8720  144.7778  164.6625 C.3     1  UNL1        0.0789
@<TRIPOS>BOND
     1    33    34    1
     2    34    28    1
     3    28    29   ar
     4    29    30   ar
     5     1    30    1
     6     1    35    1
     7    35    36   ar
     8    36    37   ar
     9    37    38   ar
    10    38    40    1
    11    40    41    1
    12    38    39   ar
    13     1     2    1
    14     2     3    1
    15     3    15    1
    16    15    16   ar
    17    16    17   ar
    18    17    21    1
    19    21    22   ar
    20    22    23   ar
    21    23    24   ar
    22    24    25    1
    23    24    26   ar
    24    26    27   ar
    25    17    18   ar
    26    18    19   ar
    27     3     4    1
    28     4     5    1
    29     5     6    2
    30     6     7    1
    31     7     8    2
    32     8     9    1
    33     9    10    1
    34    10    11    2
    35    11    12    1
    36    12    13    2
    37    30    31   ar
    38    31    32   ar
    39    32    28   ar
    40     6     1    1
    41    13     8    1
    42    39    35   ar
    43    19    15   ar
    44    13     5    1
    45    27    21   ar
    46     2    14    1
    47    19    20    1
@<TRIPOS>MOLECULE
*****
 41 47 0 0 0
SMALL
GASTEIGER

@<TRIPOS>ATOM
      1 C         141.0412  142.4926  159.3140 C.3     1  UNL1        0.1707
      2 N         139.7699  142.1026  158.6200 N.3     1  UNL1       -0.2797
      3 C         139.8073  141.6263  157.1982 C.3     1  UNL1        0.1167
      4 C         141.1160  141.5401  156.4703 C.3     1  UNL1        0.0511
      5 C         142.3873  141.9300  157.1642 C.2     1  UNL1       -0.0037
      6 C         142.3499  142.4063  158.5861 C.2     1  UNL1        0.0800
      7 N         143.7551  142.7203  159.0068 N.2     1  UNL1       -0.2519
      8 C         144.6609  142.4380  157.8450 C.2     1  UNL1        0.0627
      9 C         146.1462  142.5626  157.6769 C.3     1  UNL1        0.0717
     10 C         146.7862  142.1989  156.3700 C.2     1  UNL1       -0.0198
     11 C         145.9408  141.7105  155.2312 C.2     1  UNL1       -0.0042
     12 C         144.4555  141.5858  155.3993 C.2     1  UNL1        0.0006
     13 C         143.8156  141.9496  156.7062 C.2     1  UNL1        0.0111
     14 H         139.1603  142.9202  158.6408 H       1  UNL1        0.1246
     15 C         138.5359  141.2363  156.5041 C.ar    1  UNL1        0.1319
     16 N         137.1715  141.1880  157.1253 N.ar    1  UNL1       -0.2282
     17 C         136.1981  140.7480  156.0722 C.ar    1  UNL1        0.1171
     18 C         136.9610  140.5244  154.8002 C.ar    1  UNL1        0.0942
     19 N         138.4059  140.8262  155.0672 N.ar    1  UNL1       -0.3385
     20 H         139.1400  140.7657  154.4140 H       1  UNL1        0.1672
     21 C         134.7211  140.5639  156.2585 C.ar    1  UNL1        0.1006
     22 C         133.7566  141.2924  155.3702 C.ar    1  UNL1        0.0230
     23 C         132.2797  141.1083  155.5564 C.ar    1  UNL1        0.0328
     24 C         131.7672  140.1958  156.6309 C.ar    1  UNL1        0.1592
     25 F         130.2902  140.0117  156.8171 F       1  UNL1       -0.2025
     26 C         132.7317  139.4673  157.5191 C.ar    1  UNL1        0.1284
     27 N         134.2086  139.6513  157.3330 N.ar    1  UNL1       -0.2399
     28 N         138.4482  142.3936  162.2005 N.ar    1  UNL1       -0.2497
     29 C         139.3307  141.6968  161.2076 C.ar    1  UNL1        0.0944
     30 C         140.0551  142.7448  160.4158 C.ar    1  UNL1        0.0439
     31 C         139.6203  144.0892  160.9193 C.ar    1  UNL1        0.1194
     32 N         138.6271  143.8721  162.0223 N.ar    1  UNL1       -0.1679
     33 C         138.1103  140.7554  164.1885 C.3     1  UNL1        0.0284
     34 C         137.5452  141.7285  163.1967 C.3     1  UNL1        0.1276
     35 C         141.9701  142.9702  160.3907 C.ar    1  UNL1        0.2487
     36 N         142.4145  144.3863  160.6075 N.ar    1  UNL1       -0.1088
     37 N         143.3368  144.4067  161.7904 N.ar    1  UNL1       -0.1009
     38 C         143.4623  143.0032  162.3045 C.ar    1  UNL1        0.2781
     39 O         142.6177  142.1153  161.4394 O.2     1  UNL1       -0.4128
     40 S         144.2877  142.5645  163.4777 S.3     1  UNL1       -0.0544
     41 C         145.5713  141.8209  163.2556 C.3     1  UNL1        0.0789
@<TRIPOS>BOND
     1    33    34    1
     2    34    28    1
     3    28    29   ar
     4    29    30   ar
     5     1    30    1
     6     1    35    1
     7    35    36   ar
     8    36    37   ar
     9    37    38   ar
    10    38    40    1
    11    40    41    1
    12    38    39   ar
    13     1     2    1
    14     2     3    1
    15     3    15    1
    16    15    16   ar
    17    16    17   ar
    18    17    21    1
    19    21    22   ar
    20    22    23   ar
    21    23    24   ar
    22    24    25    1
    23    24    26   ar
    24    26    27   ar
    25    17    18   ar
    26    18    19   ar
    27     3     4    1
    28     4     5    1
    29     5     6    2
    30     6     7    1
    31     7     8    2
    32     8     9    1
    33     9    10    1
    34    10    11    2
    35    11    12    1
    36    12    13    2
    37    30    31   ar
    38    31    32   ar
    39    32    28   ar
    40     6     1    1
    41    13     8    1
    42    39    35   ar
    43    19    15   ar
    44    13     5    1
    45    27    21   ar
    46     2    14    1
    47    19    20    1
@<TRIPOS>MOLECULE
*****
 41 47 0 0 0
SMALL
GASTEIGER

@<TRIPOS>ATOM
      1 C         139.6582  141.5359  159.9401 C.3     1  UNL1        0.1707
      2 N         139.7600  140.7098  158.6923 N.3     1  UNL1       -0.2797
      3 C         139.6536  139.2157  158.7713 C.3     1  UNL1        0.1167
      4 C         139.4454  138.5477  160.0981 C.3     1  UNL1        0.0511
      5 C         139.3435  139.3738  161.3459 C.2     1  UNL1       -0.0037
      6 C         139.4499  140.8679  161.2669 C.2     1  UNL1        0.0800
      7 N         139.3125  141.4165  162.6563 N.2     1  UNL1       -0.2519
      8 C         139.1212  140.2613  163.5939 C.2     1  UNL1        0.0627
      9 C         138.9320  140.1960  165.0805 C.3     1  UNL1        0.0717
     10 C         138.7619  138.8682  165.7572 C.2     1  UNL1       -0.0198
     11 C         138.7811  137.6057  164.9473 C.2     1  UNL1       -0.0042
     12 C         138.9703  137.6711  163.4607 C.2     1  UNL1        0.0006
     13 C         139.1403  138.9989  162.7840 C.2     1  UNL1        0.0111
     14 H         140.6666  140.9187  158.2740 H       1  UNL1        0.1246
     15 C         139.7555  138.3895  157.5234 C.ar    1  UNL1        0.1319
     16 N         140.6915  137.2385  157.3021 N.ar    1  UNL1       -0.2282
     17 C         140.4537  136.7069  155.9198 C.ar    1  UNL1        0.1171
     18 C         139.3708  137.5294  155.2868 C.ar    1  UNL1        0.0942
     19 N         138.9392  138.5693  156.2779 N.ar    1  UNL1       -0.3385
     20 H         138.2426  139.2502  156.1358 H       1  UNL1        0.1672
     21 C         141.1728  135.5550  155.2823 C.ar    1  UNL1        0.1006
     22 C         142.2009  134.7892  156.0611 C.ar    1  UNL1        0.0230
     23 C         142.9199  133.6373  155.4237 C.ar    1  UNL1        0.0328
     24 C         142.6108  133.2513  154.0076 C.ar    1  UNL1        0.1592
     25 F         143.3298  132.0994  153.3702 F       1  UNL1       -0.2025
     26 C         141.5826  134.0172  153.2289 C.ar    1  UNL1        0.1284
     27 N         140.8636  135.1690  153.8662 N.ar    1  UNL1       -0.2399
     28 N         139.4981  144.1197  157.0481 N.ar    1  UNL1       -0.2497
     29 C         138.9035  142.9799  157.8211 C.ar    1  UNL1        0.0944
     30 C         139.8548  142.6218  158.9242 C.ar    1  UNL1        0.0439
     31 C         141.0372  143.5403  158.8330 C.ar    1  UNL1        0.1194
     32 N         140.8167  144.4661  157.6735 N.ar    1  UNL1       -0.1679
     33 C         137.5354  144.3582  155.3625 C.3     1  UNL1        0.0284
     34 C         138.8821  144.7947  155.8586 C.3     1  UNL1        0.1276
     35 C         139.6246  142.7392  160.8352 C.ar    1  UNL1        0.2487
     36 N         138.4256  143.5951  161.1172 N.ar    1  UNL1       -0.1088
     37 N         138.8442  144.6827  162.0617 N.ar    1  UNL1       -0.1009
     38 C         140.3020  144.4988  162.3634 C.ar    1  UNL1        0.2781
     39 O         140.7843  143.2976  161.6054 O.2     1  UNL1       -0.4128
     40 S         141.1317  145.3642  163.2649 S.3     1  UNL1       -0.0544
     41 C         142.5779  145.0387  163.4941 C.3     1  UNL1        0.0789
@<TRIPOS>BOND
     1    33    34    1
     2    34    28    1
     3    28    29   ar
     4    29    30   ar
     5     1    30    1
     6     1    35    1
     7    35    36   ar
     8    36    37   ar
     9    37    38   ar
    10    38    40    1
    11    40    41    1
    12    38    39   ar
    13     1     2    1
    14     2     3    1
    15     3    15    1
    16    15    16   ar
    17    16    17   ar
    18    17    21    1
    19    21    22   ar
    20    22    23   ar
    21    23    24   ar
    22    24    25    1
    23    24    26   ar
    24    26    27   ar
    25    17    18   ar
    26    18    19   ar
    27     3     4    1
    28     4     5    1
    29     5     6    2
    30     6     7    1
    31     7     8    2
    32     8     9    1
    33     9    10    1
    34    10    11    2
    35    11    12    1
    36    12    13    2
    37    30    31   ar
    38    31    32   ar
    39    32    28   ar
    40     6     1    1
    41    13     8    1
    42    39    35   ar
    43    19    15   ar
    44    13     5    1
    45    27    21   ar
    46     2    14    1
    47    19    20    1
@<TRIPOS>MOLECULE
*****
 41 47 0 0 0
SMALL
GASTEIGER

@<TRIPOS>ATOM
      1 C         141.3654  140.2574  159.8897 C.3     1  UNL1        0.1707
      2 N         141.8661  139.0095  159.2249 N.3     1  UNL1       -0.2797
      3 C         142.4606  139.0793  157.8496 C.3     1  UNL1        0.1167
      4 C         142.5545  140.3970  157.1390 C.3     1  UNL1        0.0511
      5 C         142.0539  141.6449  157.8038 C.2     1  UNL1       -0.0037
      6 C         141.4594  141.5752  159.1792 C.2     1  UNL1        0.0800
      7 N         141.0524  142.9624  159.5791 N.2     1  UNL1       -0.2519
      8 C         141.3953  143.8895  158.4509 C.2     1  UNL1        0.0627
      9 C         141.2240  145.3699  158.2809 C.3     1  UNL1        0.0717
     10 C         141.6716  146.0361  157.0137 C.2     1  UNL1       -0.0198
     11 C         142.2906  145.2218  155.9165 C.2     1  UNL1       -0.0042
     12 C         142.4620  143.7414  156.0865 C.2     1  UNL1        0.0006
     13 C         142.0144  143.0753  157.3537 C.2     1  UNL1        0.0111
     14 H         141.0758  138.3668  159.1718 H       1  UNL1        0.1246
     15 C         142.9612  137.8313  157.1847 C.ar    1  UNL1        0.1319
     16 N         142.6302  136.4246  157.5867 N.ar    1  UNL1       -0.2282
     17 C         143.3451  135.4949  156.6516 C.ar    1  UNL1        0.1171
     18 C         144.1180  136.3270  155.6716 C.ar    1  UNL1        0.0942
     19 N         143.8807  137.7710  156.0011 N.ar    1  UNL1       -0.3385
     20 H         144.2616  138.5435  155.5242 H       1  UNL1        0.1672
     21 C         143.2958  133.9961  156.6897 C.ar    1  UNL1        0.1006
     22 C         144.3054  133.2328  157.4948 C.ar    1  UNL1        0.0230
     23 C         144.2561  131.7341  157.5330 C.ar    1  UNL1        0.0328
     24 C         143.1973  130.9988  156.7661 C.ar    1  UNL1        0.1592
     25 F         143.1480  129.5000  156.8043 F       1  UNL1       -0.2025
     26 C         142.1878  131.7621  155.9610 C.ar    1  UNL1        0.1284
     27 N         142.2371  133.2608  155.9228 N.ar    1  UNL1       -0.2399
     28 N         141.2026  137.9217  162.9854 N.ar    1  UNL1       -0.2497
     29 C         141.8696  139.0124  162.2007 C.ar    1  UNL1        0.0944
     30 C         141.0609  139.2519  160.9603 C.ar    1  UNL1        0.0439
     31 C         139.8942  138.3093  160.9784 C.ar    1  UNL1        0.1194
     32 N         139.9818  137.4872  162.2300 N.ar    1  UNL1       -0.1679
     33 C         142.2869  138.2712  165.3204 C.3     1  UNL1        0.0284
     34 C         141.6739  137.3636  164.2956 C.3     1  UNL1        0.1276
     35 C         140.7591  141.1562  160.9264 C.ar    1  UNL1        0.2487
     36 N         141.5101  141.9448  161.9578 N.ar    1  UNL1       -0.1088
     37 N         140.5103  142.7001  162.7824 N.ar    1  UNL1       -0.1009
     38 C         139.1414  142.3784  162.2605 C.ar    1  UNL1        0.2781
     39 O         139.2951  141.4242  161.1134 O.2     1  UNL1       -0.4128
     40 S         137.8461  142.9164  162.7924 S.3     1  UNL1       -0.0544
     41 C         137.8531  144.0159  163.8126 C.3     1  UNL1        0.0789
@<TRIPOS>BOND
     1    33    34    1
     2    34    28    1
     3    28    29   ar
     4    29    30   ar
     5     1    30    1
     6     1    35    1
     7    35    36   ar
     8    36    37   ar
     9    37    38   ar
    10    38    40    1
    11    40    41    1
    12    38    39   ar
    13     1     2    1
    14     2     3    1
    15     3    15    1
    16    15    16   ar
    17    16    17   ar
    18    17    21    1
    19    21    22   ar
    20    22    23   ar
    21    23    24   ar
    22    24    25    1
    23    24    26   ar
    24    26    27   ar
    25    17    18   ar
    26    18    19   ar
    27     3     4    1
    28     4     5    1
    29     5     6    2
    30     6     7    1
    31     7     8    2
    32     8     9    1
    33     9    10    1
    34    10    11    2
    35    11    12    1
    36    12    13    2
    37    30    31   ar
    38    31    32   ar
    39    32    28   ar
    40     6     1    1
    41    13     8    1
    42    39    35   ar
    43    19    15   ar
    44    13     5    1
    45    27    21   ar
    46     2    14    1
    47    19    20    1
@<TRIPOS>MOLECULE
*****
 41 47 0 0 0
SMALL
GASTEIGER

@<TRIPOS>ATOM
      1 C         141.6992  142.0226  161.3582 C.3     1  UNL1        0.1707
      2 N         141.9379  141.2894  160.0716 N.3     1  UNL1       -0.2797
      3 C         142.5031  139.9002  160.0939 C.3     1  UNL1        0.1167
      4 C         142.8297  139.2441  161.4027 C.3     1  UNL1        0.0511
      5 C         142.5909  139.9774  162.6893 C.2     1  UNL1       -0.0037
      6 C         142.0257  141.3666  162.6671 C.2     1  UNL1        0.0800
      7 N         141.8992  141.8383  164.0854 N.2     1  UNL1       -0.2519
      8 C         142.3863  140.7405  164.9841 C.2     1  UNL1        0.0627
      9 C         142.4958  140.6397  166.4767 C.3     1  UNL1        0.0717
     10 C         143.0328  139.3887  167.1064 C.2     1  UNL1       -0.0198
     11 C         143.4603  138.2386  166.2436 C.2     1  UNL1       -0.0042
     12 C         143.3508  138.3394  164.7511 C.2     1  UNL1        0.0006
     13 C         142.8138  139.5904  164.1213 C.2     1  UNL1        0.0111
     14 H         142.5806  141.8601  159.5224 H       1  UNL1        0.1246
     15 C         142.7419  139.1669  158.8072 C.ar    1  UNL1        0.1319
     16 N         142.6440  137.6836  158.6066 N.ar    1  UNL1       -0.2282
     17 C         142.9621  137.3881  157.1708 C.ar    1  UNL1        0.1171
     18 C         143.2565  138.6888  156.4841 C.ar    1  UNL1        0.0942
     19 N         143.1204  139.7881  157.4955 N.ar    1  UNL1       -0.3385
     20 H         143.2557  140.7488  157.3278 H       1  UNL1        0.1672
     21 C         142.9822  136.0303  156.5335 C.ar    1  UNL1        0.1006
     22 C         142.7494  135.8907  155.0583 C.ar    1  UNL1        0.0230
     23 C         142.7695  134.5329  154.4211 C.ar    1  UNL1        0.0328
     24 C         143.0223  133.3148  155.2591 C.ar    1  UNL1        0.1592
     25 F         143.0424  131.9570  154.6218 F       1  UNL1       -0.2025
     26 C         143.2550  133.4545  156.7343 C.ar    1  UNL1        0.1284
     27 N         143.2350  134.8122  157.3715 N.ar    1  UNL1       -0.2399
     28 N         141.2267  144.7704  158.6579 N.ar    1  UNL1       -0.2497
     29 C         142.1082  143.8587  159.4592 C.ar    1  UNL1        0.0944
     30 C         141.2336  143.0582  160.3781 C.ar    1  UNL1        0.0439
     31 C         139.8117  143.4751  160.1447 C.ar    1  UNL1        0.1194
     32 N         139.8075  144.5333  159.0815 N.ar    1  UNL1       -0.1679
     33 C         140.7144  146.2641  156.5948 C.3     1  UNL1        0.0284
     34 C         141.6842  145.7476  157.6158 C.3     1  UNL1        0.1276
     35 C         141.2988  143.1155  162.3045 C.ar    1  UNL1        0.2487
     36 N         142.1058  144.3362  162.6338 N.ar    1  UNL1       -0.1088
     37 N         141.3267  145.1546  163.6205 N.ar    1  UNL1       -0.1009
     38 C         140.0382  144.4396  163.9008 C.ar    1  UNL1        0.2781
     39 O         140.0210  143.1794  163.0875 O.2     1  UNL1       -0.4128
     40 S         138.9569  144.9035  164.8311 S.3     1  UNL1       -0.0544
     41 C         137.6304  144.2034  164.8477 C.3     1  UNL1        0.0789
@<TRIPOS>BOND
     1    33    34    1
     2    34    28    1
     3    28    29   ar
     4    29    30   ar
     5     1    30    1
     6     1    35    1
     7    35    36   ar
     8    36    37   ar
     9    37    38   ar
    10    38    40    1
    11    40    41    1
    12    38    39   ar
    13     1     2    1
    14     2     3    1
    15     3    15    1
    16    15    16   ar
    17    16    17   ar
    18    17    21    1
    19    21    22   ar
    20    22    23   ar
    21    23    24   ar
    22    24    25    1
    23    24    26   ar
    24    26    27   ar
    25    17    18   ar
    26    18    19   ar
    27     3     4    1
    28     4     5    1
    29     5     6    2
    30     6     7    1
    31     7     8    2
    32     8     9    1
    33     9    10    1
    34    10    11    2
    35    11    12    1
    36    12    13    2
    37    30    31   ar
    38    31    32   ar
    39    32    28   ar
    40     6     1    1
    41    13     8    1
    42    39    35   ar
    43    19    15   ar
    44    13     5    1
    45    27    21   ar
    46     2    14    1
    47    19    20    1
@<TRIPOS>MOLECULE
*****
 41 47 0 0 0
SMALL
GASTEIGER

@<TRIPOS>ATOM
      1 C         142.5707  140.0317  159.5515 C.3     1  UNL1        0.1707
      2 N         143.2883  140.4630  158.3070 N.3     1  UNL1       -0.2797
      3 C         144.1928  141.6592  158.3393 C.3     1  UNL1        0.1167
      4 C         144.3796  142.4240  159.6161 C.3     1  UNL1        0.0511
      5 C         143.6620  141.9927  160.8606 C.2     1  UNL1       -0.0037
      6 C         142.7575  140.7965  160.8283 C.2     1  UNL1        0.0800
      7 N         142.1865  140.6100  162.2028 N.2     1  UNL1       -0.2519
      8 C         142.7381  141.6909  163.0845 C.2     1  UNL1        0.0627
      9 C         142.5278  142.0073  164.5356 C.3     1  UNL1        0.0717
     10 C         143.2295  143.1784  165.1571 C.2     1  UNL1       -0.0198
     11 C         144.1414  144.0330  164.3275 C.2     1  UNL1       -0.0042
     12 C         144.3516  143.7165  162.8765 C.2     1  UNL1        0.0006
     13 C         143.6500  142.5454  162.2550 C.2     1  UNL1        0.0111
     14 H         142.5728  140.6538  157.6056 H       1  UNL1        0.1246
     15 C         144.9105  142.0906  157.0947 C.ar    1  UNL1        0.1319
     16 N         146.3765  141.9292  156.8216 N.ar    1  UNL1       -0.2282
     17 C         146.6603  142.4980  155.4629 C.ar    1  UNL1        0.1171
     18 C         145.3696  143.0110  154.8964 C.ar    1  UNL1        0.0942
     19 N         144.2882  142.7592  155.9049 N.ar    1  UNL1       -0.3385
     20 H         143.3370  142.9920  155.8037 H       1  UNL1        0.1672
     21 C         147.9996  142.5454  154.7891 C.ar    1  UNL1        0.1006
     22 C         148.2167  143.4532  153.6148 C.ar    1  UNL1        0.0230
     23 C         149.5559  143.5007  152.9410 C.ar    1  UNL1        0.0328
     24 C         150.6782  142.6404  153.4414 C.ar    1  UNL1        0.1592
     25 F         152.0175  142.6878  152.7676 F       1  UNL1       -0.2025
     26 C         150.4611  141.7326  154.6157 C.ar    1  UNL1        0.1284
     27 N         149.1219  141.6851  155.2895 N.ar    1  UNL1       -0.2399
     28 N         141.9846  137.0603  157.1240 N.ar    1  UNL1       -0.2497
     29 C         142.8723  137.8450  158.0440 C.ar    1  UNL1        0.0944
     30 C         142.0748  138.9916  158.5912 C.ar    1  UNL1        0.0439
     31 C         140.6943  138.9155  158.0093 C.ar    1  UNL1        0.1194
     32 N         140.6386  137.7219  157.1025 N.ar    1  UNL1       -0.1679
     33 C         143.7458  135.7221  155.7610 C.3     1  UNL1        0.0284
     34 C         142.3746  135.8299  156.3596 C.3     1  UNL1        0.1276
     35 C         141.6808  139.2391  160.4626 C.ar    1  UNL1        0.2487
     36 N         142.0306  137.9400  161.1258 N.ar    1  UNL1       -0.1088
     37 N         140.8508  137.5046  161.9434 N.ar    1  UNL1       -0.1009
     38 C         139.7719  138.5346  161.7856 C.ar    1  UNL1        0.2781
     39 O         140.2848  139.6067  160.8703 O.2     1  UNL1       -0.4128
     40 S         138.4177  138.4989  162.4298 S.3     1  UNL1       -0.0544
     41 C         138.1195  139.3905  163.5986 C.3     1  UNL1        0.0789
@<TRIPOS>BOND
     1    33    34    1
     2    34    28    1
     3    28    29   ar
     4    29    30   ar
     5     1    30    1
     6     1    35    1
     7    35    36   ar
     8    36    37   ar
     9    37    38   ar
    10    38    40    1
    11    40    41    1
    12    38    39   ar
    13     1     2    1
    14     2     3    1
    15     3    15    1
    16    15    16   ar
    17    16    17   ar
    18    17    21    1
    19    21    22   ar
    20    22    23   ar
    21    23    24   ar
    22    24    25    1
    23    24    26   ar
    24    26    27   ar
    25    17    18   ar
    26    18    19   ar
    27     3     4    1
    28     4     5    1
    29     5     6    2
    30     6     7    1
    31     7     8    2
    32     8     9    1
    33     9    10    1
    34    10    11    2
    35    11    12    1
    36    12    13    2
    37    30    31   ar
    38    31    32   ar
    39    32    28   ar
    40     6     1    1
    41    13     8    1
    42    39    35   ar
    43    19    15   ar
    44    13     5    1
    45    27    21   ar
    46     2    14    1
    47    19    20    1
@<TRIPOS>MOLECULE
*****
 41 47 0 0 0
SMALL
GASTEIGER

@<TRIPOS>ATOM
      1 C         141.9983  140.7264  160.1480 C.3     1  UNL1        0.1707
      2 N         142.4381  139.4882  159.4245 N.3     1  UNL1       -0.2797
      3 C         142.5187  139.4834  157.9267 C.3     1  UNL1        0.1167
      4 C         142.1595  140.7169  157.1523 C.3     1  UNL1        0.0511
      5 C         141.7197  141.9551  157.8758 C.2     1  UNL1       -0.0037
      6 C         141.6391  141.9599  159.3736 C.2     1  UNL1        0.0800
      7 N         141.1754  143.3185  159.8084 N.2     1  UNL1       -0.2519
      8 C         140.9695  144.1534  158.5794 C.2     1  UNL1        0.0627
      9 C         140.5192  145.5721  158.3936 C.3     1  UNL1        0.0717
     10 C         140.4052  146.1481  157.0134 C.2     1  UNL1       -0.0198
     11 C         140.7415  145.3054  155.8189 C.2     1  UNL1       -0.0042
     12 C         141.1919  143.8868  156.0047 C.2     1  UNL1        0.0006
     13 C         141.3059  143.3108  157.3849 C.2     1  UNL1        0.0111
     14 H         141.7879  138.7473  159.6868 H       1  UNL1        0.1246
     15 C         142.9585  138.2452  157.2032 C.ar    1  UNL1        0.1319
     16 N         142.5034  136.8458  157.4938 N.ar    1  UNL1       -0.2282
     17 C         143.1942  135.9247  156.5323 C.ar    1  UNL1        0.1171
     18 C         144.0762  136.7549  155.6475 C.ar    1  UNL1        0.0942
     19 N         143.9305  138.1890  156.0621 N.ar    1  UNL1       -0.3385
     20 H         144.3918  138.9584  155.6566 H       1  UNL1        0.1672
     21 C         143.0316  134.4349  156.4671 C.ar    1  UNL1        0.1006
     22 C         141.9404  133.8355  155.6304 C.ar    1  UNL1        0.0230
     23 C         141.7778  132.3458  155.5652 C.ar    1  UNL1        0.0328
     24 C         142.7063  131.4555  156.3367 C.ar    1  UNL1        0.1592
     25 F         142.5436  129.9657  156.2715 F       1  UNL1       -0.2025
     26 C         143.7974  132.0549  157.1734 C.ar    1  UNL1        0.1284
     27 N         143.9601  133.5446  157.2386 N.ar    1  UNL1       -0.2399
     28 N         141.8702  138.2121  163.1022 N.ar    1  UNL1       -0.2497
     29 C         141.1992  138.9605  161.9886 C.ar    1  UNL1        0.0944
     30 C         142.2330  139.8129  161.3142 C.ar    1  UNL1        0.0439
     31 C         143.5428  139.5913  162.0110 C.ar    1  UNL1        0.1194
     32 N         143.3185  138.6019  163.1160 N.ar    1  UNL1       -0.1679
     33 C         139.9003  137.5969  164.6805 C.3     1  UNL1        0.0284
     34 C         141.2088  137.2439  164.0376 C.3     1  UNL1        0.1276
     35 C         141.6400  141.6474  161.2765 C.ar    1  UNL1        0.2487
     36 N         140.2777  141.8109  161.8825 N.ar    1  UNL1       -0.1088
     37 N         140.3770  142.8312  162.9776 N.ar    1  UNL1       -0.1009
     38 C         141.8006  143.2982  163.0483 C.ar    1  UNL1        0.2781
     39 O         142.5812  142.5666  161.9969 O.2     1  UNL1       -0.4128
     40 S         142.3476  144.3179  164.0029 S.3     1  UNL1       -0.0544
     41 C         143.6232  145.0384  163.6808 C.3     1  UNL1        0.0789
@<TRIPOS>BOND
     1    33    34    1
     2    34    28    1
     3    28    29   ar
     4    29    30   ar
     5     1    30    1
     6     1    35    1
     7    35    36   ar
     8    36    37   ar
     9    37    38   ar
    10    38    40    1
    11    40    41    1
    12    38    39   ar
    13     1     2    1
    14     2     3    1
    15     3    15    1
    16    15    16   ar
    17    16    17   ar
    18    17    21    1
    19    21    22   ar
    20    22    23   ar
    21    23    24   ar
    22    24    25    1
    23    24    26   ar
    24    26    27   ar
    25    17    18   ar
    26    18    19   ar
    27     3     4    1
    28     4     5    1
    29     5     6    2
    30     6     7    1
    31     7     8    2
    32     8     9    1
    33     9    10    1
    34    10    11    2
    35    11    12    1
    36    12    13    2
    37    30    31   ar
    38    31    32   ar
    39    32    28   ar
    40     6     1    1
    41    13     8    1
    42    39    35   ar
    43    19    15   ar
    44    13     5    1
    45    27    21   ar
    46     2    14    1
    47    19    20    1
