@<TRIPOS>MOLECULE
*****
 28 32 0 0 0
SMALL
GASTEIGER

@<TRIPOS>ATOM
      1 N         139.4414  142.8191  161.5440 N.pl3   1  UNL1       -0.2917
      2 C         140.6151  142.1251  162.1692 C.3     1  UNL1        0.0939
      3 C         140.4423  141.3678  163.4524 C.3     1  UNL1        0.0412
      4 C         139.0957  141.3045  164.1105 C.3     1  UNL1        0.0762
      5 C         137.9221  141.9984  163.4852 C.3     1  UNL1        0.0412
      6 C         138.0949  142.7557  162.2020 C.3     1  UNL1        0.0939
      7 N         138.9229  140.5471  165.3937 N.pl3   1  UNL1       -0.3088
      8 C         138.1176  139.2950  165.5769 C.3     1  UNL1        0.0954
      9 C         138.2221  138.8830  167.0154 C.3     1  UNL1        0.0490
     10 C         139.0920  139.8806  167.7213 C.ar    1  UNL1       -0.0070
     11 C         139.5456  139.9853  169.1472 C.ar    1  UNL1       -0.0007
     12 C         140.4323  141.1185  169.5708 C.ar    1  UNL1        0.0294
     13 C         140.8654  142.1470  168.5685 C.ar    1  UNL1        0.1414
     14 F         141.7522  143.2803  168.9921 F       1  UNL1       -0.2041
     15 C         140.4118  142.0423  167.1426 C.ar    1  UNL1        0.0438
     16 C         139.5251  140.9091  166.7190 C.ar    1  UNL1        0.0461
     17 C         139.9598  145.0909  157.6944 C.ar    1  UNL1        0.1705
     18 C         139.6522  143.6231  157.6634 C.ar    1  UNL1        0.0421
     19 C         139.4794  142.8659  158.9467 C.ar    1  UNL1        0.0393
     20 C         139.6142  143.5764  160.2608 C.ar    1  UNL1        0.1536
     21 N         139.9218  145.0442  160.2918 N.ar    1  UNL1       -0.1315
     22 N         140.0946  145.8015  159.0085 N.ar    1  UNL1       -0.1286
     23 C         139.5833  148.8180  153.9731 C.3     1  UNL1        0.0538
     24 C         139.9595  147.5614  154.7007 C.ar    1  UNL1        0.0786
     25 C         139.5239  147.1797  156.0844 C.ar    1  UNL1        0.0976
     26 N         140.1326  145.8482  156.4112 N.ar    1  UNL1       -0.2702
     27 C         140.9444  145.4071  155.2295 C.ar    1  UNL1        0.1837
     28 N         140.8374  146.4659  154.1723 N.ar    1  UNL1       -0.2280
@<TRIPOS>BOND
     1    23    24    1
     2    24    25   ar
     3    25    26   ar
     4    26    17    1
     5    17    18   ar
     6    18    19   ar
     7    19    20   ar
     8    20     1    1
     9     1     2    1
    10     2     3    1
    11     3     4    1
    12     4     7    1
    13     7     8    1
    14     8     9    1
    15     9    10    1
    16    10    11   ar
    17    11    12   ar
    18    12    13   ar
    19    13    14    1
    20    13    15   ar
    21    15    16   ar
    22     4     5    1
    23     5     6    1
    24    20    21   ar
    25    21    22   ar
    26    26    27   ar
    27    27    28   ar
    28    28    24   ar
    29    22    17   ar
    30     6     1    1
    31    16     7    1
    32    16    10   ar
@<TRIPOS>MOLECULE
*****
 28 32 0 0 0
SMALL
GASTEIGER

@<TRIPOS>ATOM
      1 N         141.3524  142.8090  162.7677 N.pl3   1  UNL1       -0.2917
      2 C         142.5752  143.1317  163.5744 C.3     1  UNL1        0.0939
      3 C         142.7710  142.5048  164.9230 C.3     1  UNL1        0.0412
      4 C         141.7440  141.5552  165.4649 C.3     1  UNL1        0.0762
      5 C         140.5214  141.2325  164.6582 C.3     1  UNL1        0.0412
      6 C         140.3255  141.8594  163.3096 C.3     1  UNL1        0.0939
      7 N         141.9398  140.9283  166.8135 N.pl3   1  UNL1       -0.3088
      8 C         142.5448  139.5819  167.0805 C.3     1  UNL1        0.0954
      9 C         142.5439  139.3593  168.5638 C.3     1  UNL1        0.0490
     10 C         141.9384  140.5681  169.2137 C.ar    1  UNL1       -0.0070
     11 C         141.6788  140.9111  170.6506 C.ar    1  UNL1       -0.0007
     12 C         141.0458  142.2238  171.0058 C.ar    1  UNL1        0.0294
     13 C         140.6725  143.1935  169.9240 C.ar    1  UNL1        0.1414
     14 F         140.0395  144.5062  170.2792 F       1  UNL1       -0.2041
     15 C         140.9321  142.8505  168.4870 C.ar    1  UNL1        0.0438
     16 C         141.5651  141.5378  168.1319 C.ar    1  UNL1        0.0461
     17 C         140.7649  144.6895  158.7220 C.ar    1  UNL1        0.1705
     18 C         139.7936  143.6600  159.2187 C.ar    1  UNL1        0.0421
     19 C         139.9895  143.0331  160.5673 C.ar    1  UNL1        0.0393
     20 C         141.1566  143.4358  161.4191 C.ar    1  UNL1        0.1536
     21 N         142.1279  144.4654  160.9224 N.ar    1  UNL1       -0.1315
     22 N         141.9320  145.0922  159.5738 N.ar    1  UNL1       -0.1286
     23 C         139.2853  148.0158  154.8974 C.3     1  UNL1        0.0538
     24 C         139.8889  146.8453  155.6154 C.ar    1  UNL1        0.0786
     25 C         139.8411  146.5979  157.0941 C.ar    1  UNL1        0.0976
     26 N         140.5690  145.3164  157.3734 N.ar    1  UNL1       -0.2702
     27 C         141.0667  144.7718  156.0673 C.ar    1  UNL1        0.1837
     28 N         140.6464  145.7168  154.9808 N.ar    1  UNL1       -0.2280
@<TRIPOS>BOND
     1    23    24    1
     2    24    25   ar
     3    25    26   ar
     4    26    17    1
     5    17    18   ar
     6    18    19   ar
     7    19    20   ar
     8    20     1    1
     9     1     2    1
    10     2     3    1
    11     3     4    1
    12     4     7    1
    13     7     8    1
    14     8     9    1
    15     9    10    1
    16    10    11   ar
    17    11    12   ar
    18    12    13   ar
    19    13    14    1
    20    13    15   ar
    21    15    16   ar
    22     4     5    1
    23     5     6    1
    24    20    21   ar
    25    21    22   ar
    26    26    27   ar
    27    27    28   ar
    28    28    24   ar
    29    22    17   ar
    30     6     1    1
    31    16     7    1
    32    16    10   ar
@<TRIPOS>MOLECULE
*****
 28 32 0 0 0
SMALL
GASTEIGER

@<TRIPOS>ATOM
      1 N         141.2817  143.3225  163.4121 N.pl3   1  UNL1       -0.2917
      2 C         140.2173  143.3592  164.4683 C.3     1  UNL1        0.0939
      3 C         140.5476  142.9733  165.8797 C.3     1  UNL1        0.0412
      4 C         141.9424  142.5507  166.2349 C.3     1  UNL1        0.0762
      5 C         143.0068  142.5141  165.1786 C.3     1  UNL1        0.0412
      6 C         142.6764  142.9000  163.7672 C.3     1  UNL1        0.0939
      7 N         142.2728  142.1648  167.6462 N.pl3   1  UNL1       -0.3088
      8 C         143.5713  142.4253  168.3506 C.3     1  UNL1        0.0954
      9 C         143.4635  141.8721  169.7407 C.3     1  UNL1        0.0490
     10 C         142.0985  141.2699  169.8955 C.ar    1  UNL1       -0.0070
     11 C         141.4306  140.5802  171.0479 C.ar    1  UNL1       -0.0007
     12 C         140.0267  140.0713  170.9059 C.ar    1  UNL1        0.0294
     13 C         139.2908  140.2522  169.6114 C.ar    1  UNL1        0.1414
     14 F         137.8869  139.7433  169.4694 F       1  UNL1       -0.2041
     15 C         139.9587  140.9420  168.4590 C.ar    1  UNL1        0.0438
     16 C         141.3625  141.4508  168.6010 C.ar    1  UNL1        0.0461
     17 C         140.2909  144.4802  159.1780 C.ar    1  UNL1        0.1705
     18 C         141.7093  144.5463  159.6612 C.ar    1  UNL1        0.0421
     19 C         142.0396  144.1604  161.0726 C.ar    1  UNL1        0.0393
     20 C         140.9514  143.7084  162.0007 C.ar    1  UNL1        0.1536
     21 N         139.5329  143.6422  161.5175 N.ar    1  UNL1       -0.1315
     22 N         139.2026  144.0282  160.1061 N.ar    1  UNL1       -0.1286
     23 C         139.5882  147.3187  154.7814 C.3     1  UNL1        0.0538
     24 C         139.6376  146.1708  155.7457 C.ar    1  UNL1        0.0786
     25 C         140.0662  146.2431  157.1814 C.ar    1  UNL1        0.0976
     26 N         139.9605  144.8661  157.7666 N.ar    1  UNL1       -0.2702
     27 C         139.4665  143.9426  156.6927 C.ar    1  UNL1        0.1837
     28 N         139.2669  144.7490  155.4437 N.ar    1  UNL1       -0.2280
@<TRIPOS>BOND
     1    23    24    1
     2    24    25   ar
     3    25    26   ar
     4    26    17    1
     5    17    18   ar
     6    18    19   ar
     7    19    20   ar
     8    20     1    1
     9     1     2    1
    10     2     3    1
    11     3     4    1
    12     4     7    1
    13     7     8    1
    14     8     9    1
    15     9    10    1
    16    10    11   ar
    17    11    12   ar
    18    12    13   ar
    19    13    14    1
    20    13    15   ar
    21    15    16   ar
    22     4     5    1
    23     5     6    1
    24    20    21   ar
    25    21    22   ar
    26    26    27   ar
    27    27    28   ar
    28    28    24   ar
    29    22    17   ar
    30     6     1    1
    31    16     7    1
    32    16    10   ar
@<TRIPOS>MOLECULE
*****
 28 32 0 0 0
SMALL
GASTEIGER

@<TRIPOS>ATOM
      1 N         142.7004  140.5493  160.9697 N.pl3   1  UNL1       -0.2917
      2 C         141.4982  141.4049  161.2391 C.3     1  UNL1        0.0939
      3 C         140.6949  141.1976  162.4888 C.3     1  UNL1        0.0412
      4 C         141.0939  140.1346  163.4692 C.3     1  UNL1        0.0762
      5 C         142.2961  139.2791  163.1997 C.3     1  UNL1        0.0412
      6 C         143.0993  139.4864  161.9500 C.3     1  UNL1        0.0939
      7 N         140.2906  139.9273  164.7189 N.pl3   1  UNL1       -0.3088
      8 C         139.0121  139.1503  164.8264 C.3     1  UNL1        0.0954
      9 C         138.5562  139.2034  166.2545 C.3     1  UNL1        0.0490
     10 C         139.5530  140.0132  167.0295 C.ar    1  UNL1       -0.0070
     11 C         139.6230  140.4010  168.4768 C.ar    1  UNL1       -0.0007
     12 C         140.7650  141.2362  168.9750 C.ar    1  UNL1        0.0294
     13 C         141.8369  141.6836  168.0259 C.ar    1  UNL1        0.1414
     14 F         142.9790  142.5189  168.5242 F       1  UNL1       -0.2041
     15 C         141.7669  141.2958  166.5786 C.ar    1  UNL1        0.0438
     16 C         140.6249  140.4606  166.0804 C.ar    1  UNL1        0.0461
     17 C         145.1102  141.1714  157.2206 C.ar    1  UNL1        0.1705
     18 C         144.8973  142.3106  158.1730 C.ar    1  UNL1        0.0421
     19 C         144.0940  142.1031  159.4227 C.ar    1  UNL1        0.0393
     20 C         143.5036  140.7567  159.7199 C.ar    1  UNL1        0.1536
     21 N         143.7165  139.6175  158.7675 N.ar    1  UNL1       -0.1315
     22 N         144.5198  139.8250  157.5178 N.ar    1  UNL1       -0.1286
     23 C         148.8668  142.7727  153.8734 C.3     1  UNL1        0.0538
     24 C         147.6402  142.1148  154.4324 C.ar    1  UNL1        0.0786
     25 C         147.1795  142.1753  155.8586 C.ar    1  UNL1        0.0976
     26 N         145.9134  141.3788  155.9709 N.ar    1  UNL1       -0.2702
     27 C         145.5917  140.8259  154.6141 C.ar    1  UNL1        0.1837
     28 N         146.6589  141.2808  153.6632 N.ar    1  UNL1       -0.2280
@<TRIPOS>BOND
     1    23    24    1
     2    24    25   ar
     3    25    26   ar
     4    26    17    1
     5    17    18   ar
     6    18    19   ar
     7    19    20   ar
     8    20     1    1
     9     1     2    1
    10     2     3    1
    11     3     4    1
    12     4     7    1
    13     7     8    1
    14     8     9    1
    15     9    10    1
    16    10    11   ar
    17    11    12   ar
    18    12    13   ar
    19    13    14    1
    20    13    15   ar
    21    15    16   ar
    22     4     5    1
    23     5     6    1
    24    20    21   ar
    25    21    22   ar
    26    26    27   ar
    27    27    28   ar
    28    28    24   ar
    29    22    17   ar
    30     6     1    1
    31    16     7    1
    32    16    10   ar
@<TRIPOS>MOLECULE
*****
 28 32 0 0 0
SMALL
GASTEIGER

@<TRIPOS>ATOM
      1 N         141.3324  139.1335  163.4164 N.pl3   1  UNL1       -0.2917
      2 C         142.1190  138.5358  164.5451 C.3     1  UNL1        0.0939
      3 C         141.7858  138.8932  165.9633 C.3     1  UNL1        0.0412
      4 C         140.6659  139.8483  166.2528 C.3     1  UNL1        0.0762
      5 C         139.8793  140.4459  165.1241 C.3     1  UNL1        0.0412
      6 C         140.2125  140.0885  163.7059 C.3     1  UNL1        0.0939
      7 N         140.3326  140.2057  167.6710 N.pl3   1  UNL1       -0.3088
      8 C         139.0457  139.8999  168.3782 C.3     1  UNL1        0.0954
      9 C         139.1456  140.4368  169.7752 C.3     1  UNL1        0.0490
     10 C         140.4943  141.0744  169.9314 C.ar    1  UNL1       -0.0070
     11 C         141.1491  141.7666  171.0898 C.ar    1  UNL1       -0.0007
     12 C         142.5376  142.3160  170.9478 C.ar    1  UNL1        0.0294
     13 C         143.2713  142.1731  169.6473 C.ar    1  UNL1        0.1414
     14 F         144.6599  142.7225  169.5052 F       1  UNL1       -0.2041
     15 C         142.6165  141.4809  168.4888 C.ar    1  UNL1        0.0438
     16 C         141.2280  140.9316  168.6309 C.ar    1  UNL1        0.0461
     17 C         142.3319  138.0614  159.1618 C.ar    1  UNL1        0.1705
     18 C         141.0010  138.6711  159.4888 C.ar    1  UNL1        0.0421
     19 C         140.6679  139.0285  160.9070 C.ar    1  UNL1        0.0393
     20 C         141.6656  138.7761  161.9982 C.ar    1  UNL1        0.1536
     21 N         142.9965  138.1664  161.6713 N.ar    1  UNL1       -0.1315
     22 N         143.3297  137.8090  160.2530 N.ar    1  UNL1       -0.1286
     23 C         143.3321  138.4367  153.9908 C.3     1  UNL1        0.0538
     24 C         143.1249  137.8766  155.3668 C.ar    1  UNL1        0.0786
     25 C         142.7752  138.6629  156.5954 C.ar    1  UNL1        0.0976
     26 N         142.6651  137.7040  157.7437 N.ar    1  UNL1       -0.2702
     27 C         142.9468  136.3251  157.2248 C.ar    1  UNL1        0.1837
     28 N         143.2310  136.4317  155.7557 N.ar    1  UNL1       -0.2280
@<TRIPOS>BOND
     1    23    24    1
     2    24    25   ar
     3    25    26   ar
     4    26    17    1
     5    17    18   ar
     6    18    19   ar
     7    19    20   ar
     8    20     1    1
     9     1     2    1
    10     2     3    1
    11     3     4    1
    12     4     7    1
    13     7     8    1
    14     8     9    1
    15     9    10    1
    16    10    11   ar
    17    11    12   ar
    18    12    13   ar
    19    13    14    1
    20    13    15   ar
    21    15    16   ar
    22     4     5    1
    23     5     6    1
    24    20    21   ar
    25    21    22   ar
    26    26    27   ar
    27    27    28   ar
    28    28    24   ar
    29    22    17   ar
    30     6     1    1
    31    16     7    1
    32    16    10   ar
@<TRIPOS>MOLECULE
*****
 28 32 0 0 0
SMALL
GASTEIGER

@<TRIPOS>ATOM
      1 N         140.2859  142.9107  162.8976 N.pl3   1  UNL1       -0.2917
      2 C         140.4681  141.4314  163.0663 C.3     1  UNL1        0.0939
      3 C         140.4649  140.8270  164.4391 C.3     1  UNL1        0.0412
      4 C         140.2795  141.7020  165.6434 C.3     1  UNL1        0.0762
      5 C         140.0973  143.1812  165.4747 C.3     1  UNL1        0.0412
      6 C         140.1005  143.7856  164.1018 C.3     1  UNL1        0.0939
      7 N         140.2764  141.0976  167.0162 N.pl3   1  UNL1       -0.3088
      8 C         139.2191  140.1951  167.5798 C.3     1  UNL1        0.0954
      9 C         139.6192  139.8294  168.9784 C.3     1  UNL1        0.0490
     10 C         140.9238  140.5058  169.2792 C.ar    1  UNL1       -0.0070
     11 C         141.7944  140.5093  170.5007 C.ar    1  UNL1       -0.0007
     12 C         143.0711  141.2966  170.5094 C.ar    1  UNL1        0.0294
     13 C         143.4772  142.0804  169.2967 C.ar    1  UNL1        0.1414
     14 F         144.7540  142.8677  169.3055 F       1  UNL1       -0.2041
     15 C         142.6067  142.0769  168.0753 C.ar    1  UNL1        0.0438
     16 C         141.3300  141.2896  168.0665 C.ar    1  UNL1        0.0461
     17 C         140.2955  144.7239  158.7791 C.ar    1  UNL1        0.1705
     18 C         141.2477  145.2281  159.8228 C.ar    1  UNL1        0.0421
     19 C         141.2444  144.6236  161.1956 C.ar    1  UNL1        0.0393
     20 C         140.2891  143.5151  161.5248 C.ar    1  UNL1        0.1536
     21 N         139.3369  143.0109  160.4811 N.ar    1  UNL1       -0.1315
     22 N         139.3402  143.6153  159.1083 N.ar    1  UNL1       -0.1286
     23 C         139.5010  148.0469  154.7534 C.3     1  UNL1        0.0538
     24 C         139.9335  146.8557  155.5559 C.ar    1  UNL1        0.0786
     25 C         139.7018  146.6501  157.0235 C.ar    1  UNL1        0.0976
     26 N         140.2987  145.3283  157.4063 N.ar    1  UNL1       -0.2702
     27 C         140.8993  144.7169  156.1752 C.ar    1  UNL1        0.1837
     28 N         140.6736  145.6610  155.0315 N.ar    1  UNL1       -0.2280
@<TRIPOS>BOND
     1    23    24    1
     2    24    25   ar
     3    25    26   ar
     4    26    17    1
     5    17    18   ar
     6    18    19   ar
     7    19    20   ar
     8    20     1    1
     9     1     2    1
    10     2     3    1
    11     3     4    1
    12     4     7    1
    13     7     8    1
    14     8     9    1
    15     9    10    1
    16    10    11   ar
    17    11    12   ar
    18    12    13   ar
    19    13    14    1
    20    13    15   ar
    21    15    16   ar
    22     4     5    1
    23     5     6    1
    24    20    21   ar
    25    21    22   ar
    26    26    27   ar
    27    27    28   ar
    28    28    24   ar
    29    22    17   ar
    30     6     1    1
    31    16     7    1
    32    16    10   ar
@<TRIPOS>MOLECULE
*****
 28 32 0 0 0
SMALL
GASTEIGER

@<TRIPOS>ATOM
      1 N         142.4633  140.5867  162.7161 N.pl3   1  UNL1       -0.2917
      2 C         142.9889  139.5966  163.7128 C.3     1  UNL1        0.0939
      3 C         142.4318  139.5662  165.1052 C.3     1  UNL1        0.0412
      4 C         141.3490  140.5260  165.5009 C.3     1  UNL1        0.0762
      5 C         140.8235  141.5161  164.5042 C.3     1  UNL1        0.0412
      6 C         141.3806  141.5465  163.1118 C.3     1  UNL1        0.0939
      7 N         140.7919  140.4956  166.8932 N.pl3   1  UNL1       -0.3088
      8 C         139.4510  139.9564  167.2948 C.3     1  UNL1        0.0954
      9 C         139.3083  140.1267  168.7782 C.3     1  UNL1        0.0490
     10 C         140.5609  140.7711  169.2935 C.ar    1  UNL1       -0.0070
     11 C         140.9851  141.1798  170.6730 C.ar    1  UNL1       -0.0007
     12 C         142.3262  141.8165  170.8875 C.ar    1  UNL1        0.0294
     13 C         143.2431  142.0445  169.7225 C.ar    1  UNL1        0.1414
     14 F         144.5843  142.6812  169.9370 F       1  UNL1       -0.2041
     15 C         142.8189  141.6359  168.3430 C.ar    1  UNL1        0.0438
     16 C         141.4779  140.9992  168.1285 C.ar    1  UNL1        0.0461
     17 C         144.1347  140.6780  158.5391 C.ar    1  UNL1        0.1705
     18 C         143.6961  141.9514  159.1993 C.ar    1  UNL1        0.0421
     19 C         143.1390  141.9210  160.5918 C.ar    1  UNL1        0.0393
     20 C         143.0204  140.6171  161.3237 C.ar    1  UNL1        0.1536
     21 N         143.4590  139.3437  160.6635 N.ar    1  UNL1       -0.1315
     22 N         144.0161  139.3742  159.2710 N.ar    1  UNL1       -0.1286
     23 C         144.8653  139.7085  153.4003 C.3     1  UNL1        0.0538
     24 C         145.0276  140.2627  154.7847 C.ar    1  UNL1        0.0786
     25 C         144.1755  139.9295  155.9733 C.ar    1  UNL1        0.0976
     26 N         144.6918  140.7084  157.1467 N.ar    1  UNL1       -0.2702
     27 C         145.8630  141.5229  156.6833 C.ar    1  UNL1        0.1837
     28 N         146.0706  141.2475  155.2234 N.ar    1  UNL1       -0.2280
@<TRIPOS>BOND
     1    23    24    1
     2    24    25   ar
     3    25    26   ar
     4    26    17    1
     5    17    18   ar
     6    18    19   ar
     7    19    20   ar
     8    20     1    1
     9     1     2    1
    10     2     3    1
    11     3     4    1
    12     4     7    1
    13     7     8    1
    14     8     9    1
    15     9    10    1
    16    10    11   ar
    17    11    12   ar
    18    12    13   ar
    19    13    14    1
    20    13    15   ar
    21    15    16   ar
    22     4     5    1
    23     5     6    1
    24    20    21   ar
    25    21    22   ar
    26    26    27   ar
    27    27    28   ar
    28    28    24   ar
    29    22    17   ar
    30     6     1    1
    31    16     7    1
    32    16    10   ar
@<TRIPOS>MOLECULE
*****
 28 32 0 0 0
SMALL
GASTEIGER

@<TRIPOS>ATOM
      1 N         144.1877  142.8633  159.1326 N.pl3   1  UNL1       -0.2917
      2 C         144.4474  142.4521  160.5516 C.3     1  UNL1        0.0939
      3 C         143.4219  142.7259  161.6115 C.3     1  UNL1        0.0412
      4 C         142.1366  143.4110  161.2525 C.3     1  UNL1        0.0762
      5 C         141.8770  143.8222  159.8336 C.3     1  UNL1        0.0412
      6 C         142.9024  143.5484  158.7736 C.3     1  UNL1        0.0939
      7 N         141.1112  143.6848  162.3124 N.pl3   1  UNL1       -0.3088
      8 C         141.1723  144.7790  163.3366 C.3     1  UNL1        0.0954
      9 C         139.9434  144.6828  164.1914 C.3     1  UNL1        0.0490
     10 C         139.1228  143.5293  163.6955 C.ar    1  UNL1       -0.0070
     11 C         137.8117  142.9608  164.1513 C.ar    1  UNL1       -0.0007
     12 C         137.2223  141.7756  163.4459 C.ar    1  UNL1        0.0294
     13 C         137.9441  141.1587  162.2846 C.ar    1  UNL1        0.1414
     14 F         137.3546  139.9734  161.5791 F       1  UNL1       -0.2041
     15 C         139.2552  141.7271  161.8287 C.ar    1  UNL1        0.0438
     16 C         139.8446  142.9124  162.5342 C.ar    1  UNL1        0.0461
     17 C         147.2639  142.0419  155.9528 C.ar    1  UNL1        0.1705
     18 C         145.8484  141.5832  155.7632 C.ar    1  UNL1        0.0421
     19 C         144.8230  141.8571  156.8232 C.ar    1  UNL1        0.0393
     20 C         145.2131  142.5895  158.0727 C.ar    1  UNL1        0.1536
     21 N         146.6286  143.0482  158.2623 N.ar    1  UNL1       -0.1315
     22 N         147.6540  142.7744  157.2023 N.ar    1  UNL1       -0.1286
     23 C         151.8581  141.0463  153.5481 C.3     1  UNL1        0.0538
     24 C         150.4011  141.3105  153.7876 C.ar    1  UNL1        0.0786
     25 C         149.7557  141.5485  155.1205 C.ar    1  UNL1        0.0976
     26 N         148.2894  141.7681  154.8929 N.ar    1  UNL1       -0.2702
     27 C         148.0286  141.6659  153.4193 C.ar    1  UNL1        0.1837
     28 N         149.3338  141.3830  152.7361 N.ar    1  UNL1       -0.2280
@<TRIPOS>BOND
     1    23    24    1
     2    24    25   ar
     3    25    26   ar
     4    26    17    1
     5    17    18   ar
     6    18    19   ar
     7    19    20   ar
     8    20     1    1
     9     1     2    1
    10     2     3    1
    11     3     4    1
    12     4     7    1
    13     7     8    1
    14     8     9    1
    15     9    10    1
    16    10    11   ar
    17    11    12   ar
    18    12    13   ar
    19    13    14    1
    20    13    15   ar
    21    15    16   ar
    22     4     5    1
    23     5     6    1
    24    20    21   ar
    25    21    22   ar
    26    26    27   ar
    27    27    28   ar
    28    28    24   ar
    29    22    17   ar
    30     6     1    1
    31    16     7    1
    32    16    10   ar
@<TRIPOS>MOLECULE
*****
 28 32 0 0 0
SMALL
GASTEIGER

@<TRIPOS>ATOM
      1 N         142.2899  139.6211  162.5339 N.pl3   1  UNL1       -0.2917
      2 C         143.3135  139.1717  163.5341 C.3     1  UNL1        0.0939
      3 C         143.2796  139.7079  164.9346 C.3     1  UNL1        0.0412
      4 C         142.2220  140.6935  165.3349 C.3     1  UNL1        0.0762
      5 C         141.1984  141.1428  164.3348 C.3     1  UNL1        0.0412
      6 C         141.2324  140.6066  162.9343 C.3     1  UNL1        0.0939
      7 N         142.1880  141.2297  166.7354 N.pl3   1  UNL1       -0.3088
      8 C         143.2154  142.1254  167.3617 C.3     1  UNL1        0.0954
      9 C         142.7830  142.4136  168.7688 C.3     1  UNL1        0.0490
     10 C         141.4885  141.6959  169.0122 C.ar    1  UNL1       -0.0070
     11 C         140.5971  141.6142  170.2158 C.ar    1  UNL1       -0.0007
     12 C         139.3380  140.8008  170.1626 C.ar    1  UNL1        0.0294
     13 C         138.9702  140.0691  168.9059 C.ar    1  UNL1        0.1414
     14 F         137.7110  139.2557  168.8528 F       1  UNL1       -0.2041
     15 C         139.8616  140.1508  167.7023 C.ar    1  UNL1        0.0438
     16 C         141.1208  140.9642  167.7555 C.ar    1  UNL1        0.0461
     17 C         142.3916  138.0126  158.3325 C.ar    1  UNL1        0.1705
     18 C         141.5394  139.2029  158.6594 C.ar    1  UNL1        0.0421
     19 C         141.5055  139.7390  160.0600 C.ar    1  UNL1        0.0393
     20 C         142.3238  139.0849  161.1334 C.ar    1  UNL1        0.1536
     21 N         143.1760  137.8946  160.8065 N.ar    1  UNL1       -0.1315
     22 N         143.2099  137.3584  159.4060 N.ar    1  UNL1       -0.1286
     23 C         141.5268  134.9903  154.0901 C.3     1  UNL1        0.0538
     24 C         142.0280  136.0872  154.9820 C.ar    1  UNL1        0.0786
     25 C         141.7178  136.2485  156.4407 C.ar    1  UNL1        0.0976
     26 N         142.4256  137.4764  156.9320 N.ar    1  UNL1       -0.2702
     27 C         143.1732  138.0740  155.7770 C.ar    1  UNL1        0.1837
     28 N         142.9275  137.2154  154.5718 N.ar    1  UNL1       -0.2280
@<TRIPOS>BOND
     1    23    24    1
     2    24    25   ar
     3    25    26   ar
     4    26    17    1
     5    17    18   ar
     6    18    19   ar
     7    19    20   ar
     8    20     1    1
     9     1     2    1
    10     2     3    1
    11     3     4    1
    12     4     7    1
    13     7     8    1
    14     8     9    1
    15     9    10    1
    16    10    11   ar
    17    11    12   ar
    18    12    13   ar
    19    13    14    1
    20    13    15   ar
    21    15    16   ar
    22     4     5    1
    23     5     6    1
    24    20    21   ar
    25    21    22   ar
    26    26    27   ar
    27    27    28   ar
    28    28    24   ar
    29    22    17   ar
    30     6     1    1
    31    16     7    1
    32    16    10   ar
