@<TRIPOS>MOLECULE
*****
 49 54 0 0 0
SMALL
GASTEIGER

@<TRIPOS>ATOM
      1 C         139.6558  140.6891  159.0129 C.ar    1  UNL1        0.1327
      2 N         140.4911  140.0589  160.0877 N.ar    1  UNL1       -0.2119
      3 C         141.4577  138.9653  159.7419 C.ar    1  UNL1        0.1679
      4 C         142.4066  138.1619  160.5812 C.ar    1  UNL1        0.0568
      5 C         143.1243  137.2019  159.6794 C.ar    1  UNL1        0.1236
      6 N         142.6190  137.4119  158.2828 N.ar    1  UNL1       -0.1610
      7 N         141.5890  138.5017  158.3214 N.ar    1  UNL1       -0.1989
      8 C         140.7537  139.1319  157.2466 C.ar    1  UNL1        0.1311
      9 N         140.8850  138.6683  155.8261 N.pl3   1  UNL1       -0.3425
     10 C         139.7871  140.2256  157.5924 C.ar    1  UNL1        0.0626
     11 H         141.5194  137.9505  155.5992 H       1  UNL1        0.1437
     12 H         140.3368  139.0819  155.1207 H       1  UNL1        0.1437
     13 C         142.6032  138.2952  162.0623 C.ar    1  UNL1        0.0045
     14 C         143.7942  139.0336  162.5973 C.ar    1  UNL1        0.0003
     15 C         143.9909  139.1670  164.0784 C.ar    1  UNL1        0.0045
     16 C         142.9964  138.5619  165.0245 C.ar    1  UNL1        0.0536
     17 C         141.8054  137.8235  164.4894 C.ar    1  UNL1        0.0045
     18 C         141.6088  137.6902  163.0083 C.ar    1  UNL1        0.0003
     19 C         143.1930  138.6952  166.5055 C.2     1  UNL1        0.2491
     20 O         143.9996  137.6729  167.2501 O.2     1  UNL1       -0.2699
     21 N         142.5831  139.8509  167.2420 N.am    1  UNL1       -0.2731
     22 C         141.7766  140.8732  166.4974 C.3     1  UNL1        0.1129
     23 C         141.1666  142.0288  167.2339 C.3     1  UNL1        0.1169
     24 N         141.3632  142.1622  168.7151 N.3     1  UNL1       -0.1559
     25 C         142.1697  141.1399  169.4596 C.3     1  UNL1        0.1169
     26 C         142.7797  139.9842  168.7230 C.3     1  UNL1        0.1129
     27 S         140.7532  143.3178  169.4515 S.O2    1  UNL1        0.0458
     28 C         140.1433  144.4735  170.1880 C.3     1  UNL1        0.1960
     29 O         141.5707  142.9776  170.6624 O.2     1  UNL1       -0.1572
     30 O         139.9358  143.6581  168.2407 O.2     1  UNL1       -0.1572
     31 C         138.9518  140.8557  156.5176 C.ar    1  UNL1        0.0054
     32 C         137.6105  140.2783  156.1748 C.ar    1  UNL1        0.0002
     33 C         136.7752  140.9085  155.1000 C.ar    1  UNL1        0.0000
     34 C         137.2812  142.1160  154.3680 C.ar    1  UNL1        0.0000
     35 C         138.6225  142.6934  154.7108 C.ar    1  UNL1        0.0000
     36 C         139.4578  142.0632  155.7856 C.ar    1  UNL1        0.0002
     37 N         138.6892  141.7828  159.3586 N.pl3   1  UNL1       -0.3195
     38 H         137.9594  142.0091  158.7379 H       1  UNL1        0.1481
     39 C         139.2709  144.7783  164.5247 C.3     1  UNL1        0.0895
     40 N         139.1255  144.0294  163.2332 N.3     1  UNL1       -0.2764
     41 C         139.9098  144.4545  162.0274 C.3     1  UNL1        0.0470
     42 C         140.3849  145.4740  163.0197 C.3     1  UNL1        0.0161
     43 C         140.8591  145.2337  161.1661 C.3     1  UNL1        0.0161
     44 C         139.7643  143.7056  160.7358 C.3     1  UNL1        0.0342
     45 C         138.8347  142.5316  160.6502 C.3     1  UNL1        0.0730
     46 C         138.0504  142.1065  161.8560 C.3     1  UNL1        0.0342
     47 C         138.1958  142.8554  163.1476 C.3     1  UNL1        0.0470
     48 C         137.1960  141.8161  163.5603 C.3     1  UNL1        0.0161
     49 C         137.9940  143.2433  164.5824 C.3     1  UNL1        0.0161
@<TRIPOS>BOND
     1    39    40    1
     2    40    41    1
     3    41    42    1
     4    41    43    1
     5    41    44    1
     6    44    45    1
     7    45    37    1
     8    37     1    1
     9     1     2   ar
    10     2     3   ar
    11     3     4   ar
    12     4    13    1
    13    13    14   ar
    14    14    15   ar
    15    15    16   ar
    16    16    19    1
    17    19    20    2
    18    19    21   am
    19    21    22    1
    20    22    23    1
    21    23    24    1
    22    24    27    1
    23    27    28    1
    24    27    29    2
    25    27    30    2
    26    24    25    1
    27    25    26    1
    28    16    17   ar
    29    17    18   ar
    30     4     5   ar
    31     5     6   ar
    32     6     7   ar
    33     7     8   ar
    34     8     9    1
    35     8    10   ar
    36    10    31    1
    37    31    32   ar
    38    32    33   ar
    39    33    34   ar
    40    34    35   ar
    41    35    36   ar
    42    45    46    1
    43    46    47    1
    44    47    48    1
    45    47    49    1
    46    47    40    1
    47    10     1   ar
    48    36    31   ar
    49     7     3   ar
    50    18    13   ar
    51    26    21    1
    52    37    38    1
    53     9    11    1
    54     9    12    1
@<TRIPOS>MOLECULE
*****
 49 54 0 0 0
SMALL
GASTEIGER

@<TRIPOS>ATOM
      1 C         140.7675  142.8418  159.3319 C.ar    1  UNL1        0.1327
      2 N         140.0602  142.0582  160.3977 N.ar    1  UNL1       -0.2119
      3 C         138.8700  141.2164  160.0446 C.ar    1  UNL1        0.1679
      4 C         137.9774  140.3420  160.8743 C.ar    1  UNL1        0.0568
      5 C         136.9427  139.7432  159.9683 C.ar    1  UNL1        0.1236
      6 N         137.1959  140.2476  158.5785 N.ar    1  UNL1       -0.1610
      7 N         138.3871  141.1581  158.6256 N.ar    1  UNL1       -0.1989
      8 C         139.0943  141.9416  157.5599 C.ar    1  UNL1        0.1311
      9 N         138.6113  141.8833  156.1409 N.pl3   1  UNL1       -0.3425
     10 C         140.2846  142.7834  157.9130 C.ar    1  UNL1        0.0626
     11 H         137.8302  141.3307  155.9092 H       1  UNL1        0.1437
     12 H         139.0755  142.3975  155.4414 H       1  UNL1        0.1437
     13 C         138.0982  140.1075  162.3509 C.ar    1  UNL1        0.0045
     14 C         138.6784  138.8218  162.8612 C.ar    1  UNL1        0.0003
     15 C         138.7992  138.5872  164.3378 C.ar    1  UNL1        0.0045
     16 C         138.3398  139.6384  165.3042 C.ar    1  UNL1        0.0536
     17 C         137.7596  140.9241  164.7940 C.ar    1  UNL1        0.0045
     18 C         137.6388  141.1586  163.3173 C.ar    1  UNL1        0.0003
     19 C         138.4607  139.4039  166.7809 C.2     1  UNL1        0.2491
     20 O         137.6152  138.3585  167.4459 O.2     1  UNL1       -0.2699
     21 N         139.4269  140.2148  167.5924 N.am    1  UNL1       -0.2731
     22 C         140.2724  141.2603  166.9273 C.3     1  UNL1        0.1129
     23 C         141.2387  142.0712  167.7389 C.3     1  UNL1        0.1169
     24 N         141.3595  141.8368  169.2156 N.3     1  UNL1       -0.1559
     25 C         140.5141  140.7913  169.8806 C.3     1  UNL1        0.1169
     26 C         139.5478  139.9804  169.0690 C.3     1  UNL1        0.1129
     27 S         142.3258  142.6477  170.0271 S.O2    1  UNL1        0.0458
     28 C         143.2920  143.4587  170.8387 C.3     1  UNL1        0.1960
     29 O         141.3522  142.6659  171.1681 O.2     1  UNL1       -0.1572
     30 O         143.2994  142.6295  168.8862 O.2     1  UNL1       -0.1572
     31 C         140.9918  143.5669  156.8472 C.ar    1  UNL1        0.0054
     32 C         140.5405  144.9583  156.5151 C.ar    1  UNL1        0.0002
     33 C         141.2477  145.7419  155.4493 C.ar    1  UNL1        0.0000
     34 C         142.4062  145.1340  154.7156 C.ar    1  UNL1        0.0000
     35 C         142.8575  143.7425  155.0477 C.ar    1  UNL1        0.0000
     36 C         142.1503  142.9590  156.1135 C.ar    1  UNL1        0.0002
     37 N         141.9577  143.6836  159.6851 N.pl3   1  UNL1       -0.3195
     38 H         142.2211  144.4325  159.1029 H       1  UNL1        0.1481
     39 C         145.1133  142.4866  164.6458 C.3     1  UNL1        0.0895
     40 N         144.3244  142.7858  163.4056 N.3     1  UNL1       -0.2764
     41 C         143.5536  144.0681  163.2983 C.3     1  UNL1        0.0470
     42 C         144.1462  144.2343  164.6662 C.3     1  UNL1        0.0161
     43 C         142.9885  145.4080  163.6660 C.3     1  UNL1        0.0161
     44 C         142.7647  144.3673  162.0581 C.3     1  UNL1        0.0342
     45 C         142.7466  143.3843  160.9252 C.3     1  UNL1        0.0730
     46 C         143.5174  142.1021  161.0326 C.3     1  UNL1        0.0342
     47 C         144.3063  141.8028  162.2728 C.3     1  UNL1        0.0470
     48 C         144.5974  140.5667  161.4743 C.3     1  UNL1        0.0161
     49 C         145.1963  141.0742  163.2357 C.3     1  UNL1        0.0161
@<TRIPOS>BOND
     1    39    40    1
     2    40    41    1
     3    41    42    1
     4    41    43    1
     5    41    44    1
     6    44    45    1
     7    45    37    1
     8    37     1    1
     9     1     2   ar
    10     2     3   ar
    11     3     4   ar
    12     4    13    1
    13    13    14   ar
    14    14    15   ar
    15    15    16   ar
    16    16    19    1
    17    19    20    2
    18    19    21   am
    19    21    22    1
    20    22    23    1
    21    23    24    1
    22    24    27    1
    23    27    28    1
    24    27    29    2
    25    27    30    2
    26    24    25    1
    27    25    26    1
    28    16    17   ar
    29    17    18   ar
    30     4     5   ar
    31     5     6   ar
    32     6     7   ar
    33     7     8   ar
    34     8     9    1
    35     8    10   ar
    36    10    31    1
    37    31    32   ar
    38    32    33   ar
    39    33    34   ar
    40    34    35   ar
    41    35    36   ar
    42    45    46    1
    43    46    47    1
    44    47    48    1
    45    47    49    1
    46    47    40    1
    47    10     1   ar
    48    36    31   ar
    49     7     3   ar
    50    18    13   ar
    51    26    21    1
    52    37    38    1
    53     9    11    1
    54     9    12    1
@<TRIPOS>MOLECULE
*****
 49 54 0 0 0
SMALL
GASTEIGER

@<TRIPOS>ATOM
      1 C         143.5629  139.3023  160.7418 C.ar    1  UNL1        0.1327
      2 N         143.3138  138.6509  159.4137 N.ar    1  UNL1       -0.2119
      3 C         143.2572  139.4849  158.1682 C.ar    1  UNL1        0.1679
      4 C         143.0298  139.1262  156.7296 C.ar    1  UNL1        0.0568
      5 C         143.0817  140.3897  155.9230 C.ar    1  UNL1        0.1236
      6 N         143.3412  141.5294  156.8631 N.ar    1  UNL1       -0.1610
      7 N         143.4496  140.9702  158.2507 N.ar    1  UNL1       -0.1989
      8 C         143.6987  141.6215  159.5787 C.ar    1  UNL1        0.1311
      9 N         143.8911  143.1069  159.6612 N.pl3   1  UNL1       -0.3425
     10 C         143.7554  140.7876  160.8243 C.ar    1  UNL1        0.0626
     11 H         143.8539  143.6542  158.8438 H       1  UNL1        0.1437
     12 H         144.0546  143.5344  160.5329 H       1  UNL1        0.1437
     13 C         142.7923  137.7461  156.1920 C.ar    1  UNL1        0.0045
     14 C         141.4074  137.1699  156.1905 C.ar    1  UNL1        0.0003
     15 C         141.1697  135.7898  155.6529 C.ar    1  UNL1        0.0045
     16 C         142.3170  134.9859  155.1168 C.ar    1  UNL1        0.0536
     17 C         143.7019  135.5622  155.1183 C.ar    1  UNL1        0.0045
     18 C         143.9396  136.9422  155.6559 C.ar    1  UNL1        0.0003
     19 C         142.0795  133.6059  154.5792 C.2     1  UNL1        0.2491
     20 O         141.4690  133.4248  153.2210 O.2     1  UNL1       -0.2699
     21 N         142.4524  132.4069  155.3998 N.am    1  UNL1       -0.2731
     22 C         143.0628  132.5880  156.7579 C.3     1  UNL1        0.1129
     23 C         143.4357  131.3890  157.5785 C.3     1  UNL1        0.1169
     24 N         143.1981  130.0089  157.0410 N.3     1  UNL1       -0.1559
     25 C         142.5877  129.8278  155.6828 C.3     1  UNL1        0.1169
     26 C         142.2148  131.0269  154.8622 C.3     1  UNL1        0.1129
     27 S         143.5710  128.8099  157.8616 S.O2    1  UNL1        0.0458
     28 C         143.9440  127.6110  158.6822 C.3     1  UNL1        0.1960
     29 O         144.4412  129.6728  158.7267 O.2     1  UNL1       -0.1572
     30 O         142.7009  127.9471  156.9965 O.2     1  UNL1       -0.1572
     31 C         144.0045  141.4390  162.1523 C.ar    1  UNL1        0.0054
     32 C         145.3589  141.3474  162.7902 C.ar    1  UNL1        0.0002
     33 C         145.6081  141.9988  164.1183 C.ar    1  UNL1        0.0000
     34 C         144.5027  142.7417  164.8084 C.ar    1  UNL1        0.0000
     35 C         143.1482  142.8332  164.1704 C.ar    1  UNL1        0.0000
     36 C         142.8991  142.1819  162.8424 C.ar    1  UNL1        0.0002
     37 N         143.6196  138.4683  161.9873 N.pl3   1  UNL1       -0.3195
     38 H         144.3692  137.8462  162.1294 H       1  UNL1        0.1481
     39 C         139.2777  138.9242  166.1031 C.3     1  UNL1        0.0895
     40 N         140.3631  138.8102  165.0741 N.3     1  UNL1       -0.2764
     41 C         140.0367  138.3364  163.6889 C.3     1  UNL1        0.0470
     42 C         138.6734  138.2789  164.3118 C.3     1  UNL1        0.0161
     43 C         139.2368  137.8427  162.5200 C.3     1  UNL1        0.0161
     44 C         141.1222  138.2225  162.6599 C.3     1  UNL1        0.0342
     45 C         142.5341  138.5823  163.0162 C.3     1  UNL1        0.0730
     46 C         142.8605  139.0561  164.4015 C.3     1  UNL1        0.0342
     47 C         141.7751  139.1700  165.4304 C.3     1  UNL1        0.0470
     48 C         142.9520  139.6242  166.2420 C.3     1  UNL1        0.0161
     49 C         141.0984  139.4417  166.7412 C.3     1  UNL1        0.0161
@<TRIPOS>BOND
     1    39    40    1
     2    40    41    1
     3    41    42    1
     4    41    43    1
     5    41    44    1
     6    44    45    1
     7    45    37    1
     8    37     1    1
     9     1     2   ar
    10     2     3   ar
    11     3     4   ar
    12     4    13    1
    13    13    14   ar
    14    14    15   ar
    15    15    16   ar
    16    16    19    1
    17    19    20    2
    18    19    21   am
    19    21    22    1
    20    22    23    1
    21    23    24    1
    22    24    27    1
    23    27    28    1
    24    27    29    2
    25    27    30    2
    26    24    25    1
    27    25    26    1
    28    16    17   ar
    29    17    18   ar
    30     4     5   ar
    31     5     6   ar
    32     6     7   ar
    33     7     8   ar
    34     8     9    1
    35     8    10   ar
    36    10    31    1
    37    31    32   ar
    38    32    33   ar
    39    33    34   ar
    40    34    35   ar
    41    35    36   ar
    42    45    46    1
    43    46    47    1
    44    47    48    1
    45    47    49    1
    46    47    40    1
    47    10     1   ar
    48    36    31   ar
    49     7     3   ar
    50    18    13   ar
    51    26    21    1
    52    37    38    1
    53     9    11    1
    54     9    12    1
@<TRIPOS>MOLECULE
*****
 49 54 0 0 0
SMALL
GASTEIGER

@<TRIPOS>ATOM
      1 C         140.4716  141.4405  160.7737 C.ar    1  UNL1        0.1327
      2 N         140.9888  140.8577  159.4919 N.ar    1  UNL1       -0.2119
      3 C         141.6682  141.7402  158.4871 C.ar    1  UNL1        0.1679
      4 C         142.2751  141.4521  157.1460 C.ar    1  UNL1        0.0568
      5 C         142.8124  142.7392  156.5940 C.ar    1  UNL1        0.1236
      6 N         142.5375  143.8229  157.5941 N.ar    1  UNL1       -0.1610
      7 N         141.8303  143.2055  158.7640 N.ar    1  UNL1       -0.1989
      8 C         141.3132  143.7883  160.0458 C.ar    1  UNL1        0.1311
      9 N         141.4753  145.2535  160.3227 N.pl3   1  UNL1       -0.3425
     10 C         140.6338  142.9057  161.0506 C.ar    1  UNL1        0.0626
     11 H         141.9212  145.8327  159.6632 H       1  UNL1        0.1437
     12 H         141.1359  145.6360  161.1640 H       1  UNL1        0.1437
     13 C         142.3343  140.1120  156.4746 C.ar    1  UNL1        0.0045
     14 C         141.0856  139.2958  156.3179 C.ar    1  UNL1        0.0003
     15 C         141.1448  137.9557  155.6466 C.ar    1  UNL1        0.0045
     16 C         142.4527  137.4318  155.1320 C.ar    1  UNL1        0.0536
     17 C         143.7014  138.2479  155.2888 C.ar    1  UNL1        0.0045
     18 C         143.6423  139.5881  155.9601 C.ar    1  UNL1        0.0003
     19 C         142.5120  136.0917  154.4607 C.2     1  UNL1        0.2491
     20 O         142.1243  135.9578  153.0178 O.2     1  UNL1       -0.2699
     21 N         142.9589  134.8855  155.2322 N.am    1  UNL1       -0.2731
     22 C         143.3466  135.0194  156.6751 C.3     1  UNL1        0.1129
     23 C         143.7936  133.8132  157.4465 C.3     1  UNL1        0.1169
     24 N         143.8529  132.4730  156.7753 N.3     1  UNL1       -0.1559
     25 C         143.4652  132.3391  155.3325 C.3     1  UNL1        0.1169
     26 C         143.0182  133.5454  154.5609 C.3     1  UNL1        0.1129
     27 S         144.2998  131.2668  157.5469 S.O2    1  UNL1        0.0458
     28 C         144.7469  130.0607  158.3185 C.3     1  UNL1        0.1960
     29 O         145.5232  132.0087  157.9977 O.2     1  UNL1       -0.1572
     30 O         143.0765  130.5250  157.0960 O.2     1  UNL1       -0.1572
     31 C         140.1166  143.4885  162.3324 C.ar    1  UNL1        0.0054
     32 C         138.6544  143.7863  162.4846 C.ar    1  UNL1        0.0002
     33 C         138.1371  144.3691  163.7664 C.ar    1  UNL1        0.0000
     34 C         139.0822  144.6540  164.8959 C.ar    1  UNL1        0.0000
     35 C         140.5444  144.3562  164.7436 C.ar    1  UNL1        0.0000
     36 C         141.0616  143.7735  163.4618 C.ar    1  UNL1        0.0002
     37 N         139.7923  140.5580  161.7785 N.pl3   1  UNL1       -0.3195
     38 H         138.8911  140.2065  161.5953 H       1  UNL1        0.1481
     39 C         142.5671  139.1699  166.9140 C.3     1  UNL1        0.0895
     40 N         141.8734  139.5169  165.6301 N.3     1  UNL1       -0.2764
     41 C         142.5662  139.2922  164.3188 C.3     1  UNL1        0.0470
     42 C         143.6287  138.8089  165.2608 C.3     1  UNL1        0.0161
     43 C         143.6279  138.8997  163.3347 C.3     1  UNL1        0.0161
     44 C         141.8725  139.6392  163.0349 C.3     1  UNL1        0.0342
     45 C         140.4860  140.2109  163.0623 C.3     1  UNL1        0.0730
     46 C         139.7932  140.4356  164.3736 C.3     1  UNL1        0.0342
     47 C         140.4869  140.0886  165.6575 C.3     1  UNL1        0.0470
     48 C         139.1841  140.6017  166.1958 C.3     1  UNL1        0.0161
     49 C         140.7281  139.9198  167.1283 C.3     1  UNL1        0.0161
@<TRIPOS>BOND
     1    39    40    1
     2    40    41    1
     3    41    42    1
     4    41    43    1
     5    41    44    1
     6    44    45    1
     7    45    37    1
     8    37     1    1
     9     1     2   ar
    10     2     3   ar
    11     3     4   ar
    12     4    13    1
    13    13    14   ar
    14    14    15   ar
    15    15    16   ar
    16    16    19    1
    17    19    20    2
    18    19    21   am
    19    21    22    1
    20    22    23    1
    21    23    24    1
    22    24    27    1
    23    27    28    1
    24    27    29    2
    25    27    30    2
    26    24    25    1
    27    25    26    1
    28    16    17   ar
    29    17    18   ar
    30     4     5   ar
    31     5     6   ar
    32     6     7   ar
    33     7     8   ar
    34     8     9    1
    35     8    10   ar
    36    10    31    1
    37    31    32   ar
    38    32    33   ar
    39    33    34   ar
    40    34    35   ar
    41    35    36   ar
    42    45    46    1
    43    46    47    1
    44    47    48    1
    45    47    49    1
    46    47    40    1
    47    10     1   ar
    48    36    31   ar
    49     7     3   ar
    50    18    13   ar
    51    26    21    1
    52    37    38    1
    53     9    11    1
    54     9    12    1
@<TRIPOS>MOLECULE
*****
 49 54 0 0 0
SMALL
GASTEIGER

@<TRIPOS>ATOM
      1 C         142.9290  140.9640  159.1591 C.ar    1  UNL1        0.1327
      2 N         141.9497  140.4103  160.1514 N.ar    1  UNL1       -0.2119
      3 C         140.8892  139.4493  159.7024 C.ar    1  UNL1        0.1679
      4 C         139.7943  138.7434  160.4460 C.ar    1  UNL1        0.0568
      5 C         139.0363  137.8998  159.4643 C.ar    1  UNL1        0.1236
      6 N         139.6628  138.0842  158.1140 N.ar    1  UNL1       -0.1610
      7 N         140.8079  139.0418  158.2610 N.ar    1  UNL1       -0.1989
      8 C         141.7871  139.5955  157.2688 C.ar    1  UNL1        0.1311
      9 N         141.7058  139.1880  155.8275 N.pl3   1  UNL1       -0.3425
     10 C         142.8477  140.5566  157.7178 C.ar    1  UNL1        0.0626
     11 H         141.0098  138.5572  155.5327 H       1  UNL1        0.1437
     12 H         142.3485  139.5514  155.1762 H       1  UNL1        0.1437
     13 C         139.5077  138.8607  161.9137 C.ar    1  UNL1        0.0045
     14 C         138.6673  139.9928  162.4257 C.ar    1  UNL1        0.0003
     15 C         138.3807  140.1101  163.8934 C.ar    1  UNL1        0.0045
     16 C         138.9345  139.0953  164.8491 C.ar    1  UNL1        0.0536
     17 C         139.7750  137.9633  164.3372 C.ar    1  UNL1        0.0045
     18 C         140.0616  137.8459  162.8695 C.ar    1  UNL1        0.0003
     19 C         138.6480  139.2126  166.3168 C.2     1  UNL1        0.2491
     20 O         137.4651  138.5053  166.9089 O.2     1  UNL1       -0.2699
     21 N         139.5443  140.0372  167.1924 N.am    1  UNL1       -0.2731
     22 C         140.7271  140.7445  166.6003 C.3     1  UNL1        0.1129
     23 C         141.6234  141.5691  167.4759 C.3     1  UNL1        0.1169
     24 N         141.3369  141.6864  168.9436 N.3     1  UNL1       -0.1559
     25 C         140.1540  140.9791  169.5357 C.3     1  UNL1        0.1169
     26 C         139.2577  140.1545  168.6601 C.3     1  UNL1        0.1129
     27 S         142.2332  142.5110  169.8192 S.O2    1  UNL1        0.0458
     28 C         143.1294  143.3356  170.6948 C.3     1  UNL1        0.1960
     29 O         141.2290  142.4229  170.9301 O.2     1  UNL1       -0.1572
     30 O         143.2373  142.5992  168.7084 O.2     1  UNL1       -0.1572
     31 C         143.8269  141.1102  156.7255 C.ar    1  UNL1        0.0054
     32 C         145.1188  140.3933  156.4667 C.ar    1  UNL1        0.0002
     33 C         146.0980  140.9469  155.4744 C.ar    1  UNL1        0.0000
     34 C         145.7854  142.2174  154.7410 C.ar    1  UNL1        0.0000
     35 C         144.4934  142.9343  154.9998 C.ar    1  UNL1        0.0000
     36 C         143.5142  142.3807  155.9921 C.ar    1  UNL1        0.0002
     37 N         143.9895  141.9251  159.6082 N.pl3   1  UNL1       -0.3195
     38 H         144.7221  142.1701  158.9979 H       1  UNL1        0.1481
     39 C         143.7667  144.2760  165.1239 C.3     1  UNL1        0.0895
     40 N         143.8224  143.6883  163.7450 N.3     1  UNL1       -0.2764
     41 C         144.7983  142.5920  163.4358 C.3     1  UNL1        0.0470
     42 C         145.1205  142.8273  164.8818 C.3     1  UNL1        0.0161
     43 C         145.8861  141.5774  163.6288 C.3     1  UNL1        0.0161
     44 C         144.8540  142.0042  162.0569 C.3     1  UNL1        0.0342
     45 C         143.9338  142.5128  160.9871 C.3     1  UNL1        0.0730
     46 C         142.9579  143.6091  161.2963 C.3     1  UNL1        0.0342
     47 C         142.9022  144.1969  162.6752 C.3     1  UNL1        0.0470
     48 C         141.8336  145.0074  162.0032 C.3     1  UNL1        0.0161
     49 C         142.4753  145.0661  163.8207 C.3     1  UNL1        0.0161
@<TRIPOS>BOND
     1    39    40    1
     2    40    41    1
     3    41    42    1
     4    41    43    1
     5    41    44    1
     6    44    45    1
     7    45    37    1
     8    37     1    1
     9     1     2   ar
    10     2     3   ar
    11     3     4   ar
    12     4    13    1
    13    13    14   ar
    14    14    15   ar
    15    15    16   ar
    16    16    19    1
    17    19    20    2
    18    19    21   am
    19    21    22    1
    20    22    23    1
    21    23    24    1
    22    24    27    1
    23    27    28    1
    24    27    29    2
    25    27    30    2
    26    24    25    1
    27    25    26    1
    28    16    17   ar
    29    17    18   ar
    30     4     5   ar
    31     5     6   ar
    32     6     7   ar
    33     7     8   ar
    34     8     9    1
    35     8    10   ar
    36    10    31    1
    37    31    32   ar
    38    32    33   ar
    39    33    34   ar
    40    34    35   ar
    41    35    36   ar
    42    45    46    1
    43    46    47    1
    44    47    48    1
    45    47    49    1
    46    47    40    1
    47    10     1   ar
    48    36    31   ar
    49     7     3   ar
    50    18    13   ar
    51    26    21    1
    52    37    38    1
    53     9    11    1
    54     9    12    1
@<TRIPOS>MOLECULE
*****
 49 54 0 0 0
SMALL
GASTEIGER

@<TRIPOS>ATOM
      1 C         141.1736  139.6154  159.0641 C.ar    1  UNL1        0.1327
      2 N         142.0288  140.4251  159.9931 N.ar    1  UNL1       -0.2119
      3 C         143.1644  141.2399  159.4486 C.ar    1  UNL1        0.1679
      4 C         144.1709  142.1303  160.1151 C.ar    1  UNL1        0.0568
      5 C         145.0734  142.6857  159.0534 C.ar    1  UNL1        0.1236
      6 N         144.6247  142.1385  157.7309 N.ar    1  UNL1       -0.1610
      7 N         143.4449  141.2449  157.9751 N.ar    1  UNL1       -0.1989
      8 C         142.5898  140.4352  157.0461 C.ar    1  UNL1        0.1311
      9 N         142.8702  140.4403  155.5725 N.pl3   1  UNL1       -0.3425
     10 C         141.4541  139.6204  157.5906 C.ar    1  UNL1        0.0626
     11 H         143.6156  140.9751  155.2151 H       1  UNL1        0.1437
     12 H         142.3089  139.9088  154.9628 H       1  UNL1        0.1437
     13 C         144.2593  142.4153  161.5851 C.ar    1  UNL1        0.0045
     14 C         143.4346  143.5142  162.1869 C.ar    1  UNL1        0.0003
     15 C         143.5229  143.7993  163.6570 C.ar    1  UNL1        0.0045
     16 C         144.4361  142.9854  164.5251 C.ar    1  UNL1        0.0536
     17 C         145.2609  141.8865  163.9233 C.ar    1  UNL1        0.0045
     18 C         145.1725  141.6015  162.4532 C.ar    1  UNL1        0.0003
     19 C         144.5245  143.2704  165.9952 C.2     1  UNL1        0.2491
     20 O         145.5315  144.2564  166.5087 O.2     1  UNL1       -0.2699
     21 N         143.6059  142.5694  166.9515 N.am    1  UNL1       -0.2731
     22 C         142.5989  141.5834  166.4380 C.3     1  UNL1        0.1129
     23 C         141.6803  140.8824  167.3944 C.3     1  UNL1        0.1169
     24 N         141.7687  141.1674  168.8645 N.3     1  UNL1       -0.1559
     25 C         142.7757  142.1534  169.3781 C.3     1  UNL1        0.1169
     26 C         143.6943  142.8544  168.4216 C.3     1  UNL1        0.1129
     27 S         140.8501  140.4664  169.8208 S.O2    1  UNL1        0.0458
     28 C         139.9315  139.7654  170.7773 C.3     1  UNL1        0.1960
     29 O         141.4401  141.2457  170.9587 O.2     1  UNL1       -0.1572
     30 O         140.2601  139.6870  168.6831 O.2     1  UNL1       -0.1572
     31 C         140.5990  138.8107  156.6616 C.ar    1  UNL1        0.0054
     32 C         139.3904  139.4294  156.0240 C.ar    1  UNL1        0.0002
     33 C         138.5352  138.6197  155.0950 C.ar    1  UNL1        0.0000
     34 C         138.8886  137.1913  154.8035 C.ar    1  UNL1        0.0000
     35 C         140.0973  136.5727  155.4411 C.ar    1  UNL1        0.0000
     36 C         140.9524  137.3824  156.3701 C.ar    1  UNL1        0.0002
     37 N         140.0380  138.8006  159.6087 N.pl3   1  UNL1       -0.3195
     38 H         139.5390  138.1936  159.0156 H       1  UNL1        0.1481
     39 C         138.5372  139.2408  165.4012 C.3     1  UNL1        0.0895
     40 N         138.9124  139.1307  163.9531 N.3     1  UNL1       -0.2764
     41 C         138.3215  140.0778  162.9511 C.3     1  UNL1        0.0470
     42 C         137.6613  140.5770  164.2021 C.3     1  UNL1        0.0161
     43 C         137.5013  141.1981  162.3837 C.3     1  UNL1        0.0161
     44 C         138.6967  139.9677  161.5030 C.3     1  UNL1        0.0342
     45 C         139.6628  138.9107  161.0568 C.3     1  UNL1        0.0730
     46 C         140.2537  137.9636  162.0587 C.3     1  UNL1        0.0342
     47 C         139.8785  138.0737  163.5069 C.3     1  UNL1        0.0470
     48 C         140.8291  136.9150  163.5714 C.3     1  UNL1        0.0161
     49 C         139.8335  137.7813  164.9774 C.3     1  UNL1        0.0161
@<TRIPOS>BOND
     1    39    40    1
     2    40    41    1
     3    41    42    1
     4    41    43    1
     5    41    44    1
     6    44    45    1
     7    45    37    1
     8    37     1    1
     9     1     2   ar
    10     2     3   ar
    11     3     4   ar
    12     4    13    1
    13    13    14   ar
    14    14    15   ar
    15    15    16   ar
    16    16    19    1
    17    19    20    2
    18    19    21   am
    19    21    22    1
    20    22    23    1
    21    23    24    1
    22    24    27    1
    23    27    28    1
    24    27    29    2
    25    27    30    2
    26    24    25    1
    27    25    26    1
    28    16    17   ar
    29    17    18   ar
    30     4     5   ar
    31     5     6   ar
    32     6     7   ar
    33     7     8   ar
    34     8     9    1
    35     8    10   ar
    36    10    31    1
    37    31    32   ar
    38    32    33   ar
    39    33    34   ar
    40    34    35   ar
    41    35    36   ar
    42    45    46    1
    43    46    47    1
    44    47    48    1
    45    47    49    1
    46    47    40    1
    47    10     1   ar
    48    36    31   ar
    49     7     3   ar
    50    18    13   ar
    51    26    21    1
    52    37    38    1
    53     9    11    1
    54     9    12    1
@<TRIPOS>MOLECULE
*****
 49 54 0 0 0
SMALL
GASTEIGER

@<TRIPOS>ATOM
      1 C         142.4173  141.4034  160.2079 C.ar    1  UNL1        0.1327
      2 N         142.1259  140.6533  158.9419 N.ar    1  UNL1       -0.2119
      3 C         141.7125  141.3980  157.7072 C.ar    1  UNL1        0.1679
      4 C         141.3632  140.9332  156.3245 C.ar    1  UNL1        0.0568
      5 C         141.0253  142.1405  155.5010 C.ar    1  UNL1        0.1236
      6 N         141.1658  143.3516  156.3749 N.ar    1  UNL1       -0.1610
      7 N         141.5905  142.8927  157.7384 N.ar    1  UNL1       -0.1989
      8 C         141.8819  143.6427  159.0042 C.ar    1  UNL1        0.1311
      9 N         141.7598  145.1374  159.0354 N.pl3   1  UNL1       -0.3425
     10 C         142.2953  142.8981  160.2390 C.ar    1  UNL1        0.0626
     11 H         141.4885  145.6262  158.2250 H       1  UNL1        0.1437
     12 H         141.9511  145.6297  159.8663 H       1  UNL1        0.1437
     13 C         141.3536  139.5106  155.8487 C.ar    1  UNL1        0.0045
     14 C         142.4307  139.0207  154.9269 C.ar    1  UNL1        0.0003
     15 C         142.4211  137.5982  154.4511 C.ar    1  UNL1        0.0045
     16 C         141.3343  136.6656  154.8971 C.ar    1  UNL1        0.0536
     17 C         140.2571  137.1555  155.8189 C.ar    1  UNL1        0.0045
     18 C         140.2667  138.5780  156.2947 C.ar    1  UNL1        0.0003
     19 C         141.3246  135.2431  154.4213 C.2     1  UNL1        0.2491
     20 O         140.6162  134.8824  153.1493 O.2     1  UNL1       -0.2699
     21 N         142.0234  134.1812  155.2176 N.am    1  UNL1       -0.2731
     22 C         142.7319  134.5418  156.4896 C.3     1  UNL1        0.1129
     23 C         143.4307  133.4799  157.2859 C.3     1  UNL1        0.1169
     24 N         143.4211  132.0574  156.8102 N.3     1  UNL1       -0.1559
     25 C         142.7126  131.6967  155.5382 C.3     1  UNL1        0.1169
     26 C         142.0138  132.7587  154.7419 C.3     1  UNL1        0.1129
     27 S         144.1199  130.9955  157.6065 S.O2    1  UNL1        0.0458
     28 C         144.8186  129.9336  158.4028 C.3     1  UNL1        0.1960
     29 O         143.0768  129.9996  157.1937 O.2     1  UNL1       -0.1572
     30 O         145.1629  131.9914  158.0193 O.2     1  UNL1       -0.1572
     31 C         142.5867  143.6481  161.5049 C.ar    1  UNL1        0.0054
     32 C         141.4758  144.3360  162.2417 C.ar    1  UNL1        0.0002
     33 C         141.7672  145.0861  163.5076 C.ar    1  UNL1        0.0000
     34 C         143.1694  145.1483  164.0367 C.ar    1  UNL1        0.0000
     35 C         144.2803  144.4604  163.2999 C.ar    1  UNL1        0.0000
     36 C         143.9889  143.7103  162.0340 C.ar    1  UNL1        0.0002
     37 N         142.8307  140.6587  161.4426 N.pl3   1  UNL1       -0.3195
     38 H         143.7717  140.3979  161.5682 H       1  UNL1        0.1481
     39 C         138.7497  139.2694  165.6157 C.3     1  UNL1        0.0895
     40 N         139.7700  139.6167  164.5724 N.3     1  UNL1       -0.2764
     41 C         140.7361  140.7387  164.8124 C.3     1  UNL1        0.0470
     42 C         139.9575  140.7870  166.0936 C.3     1  UNL1        0.0161
     43 C         141.4318  141.8775  165.4973 C.3     1  UNL1        0.0161
     44 C         141.7563  141.0861  163.7691 C.3     1  UNL1        0.0342
     45 C         141.8105  140.3114  162.4858 C.3     1  UNL1        0.0730
     46 C         140.8444  139.1894  162.2458 C.3     1  UNL1        0.0342
     47 C         139.8241  138.8420  163.2891 C.3     1  UNL1        0.0470
     48 C         139.4828  137.8238  162.2417 C.3     1  UNL1        0.0161
     49 C         138.6853  138.1410  163.9686 C.3     1  UNL1        0.0161
@<TRIPOS>BOND
     1    39    40    1
     2    40    41    1
     3    41    42    1
     4    41    43    1
     5    41    44    1
     6    44    45    1
     7    45    37    1
     8    37     1    1
     9     1     2   ar
    10     2     3   ar
    11     3     4   ar
    12     4    13    1
    13    13    14   ar
    14    14    15   ar
    15    15    16   ar
    16    16    19    1
    17    19    20    2
    18    19    21   am
    19    21    22    1
    20    22    23    1
    21    23    24    1
    22    24    27    1
    23    27    28    1
    24    27    29    2
    25    27    30    2
    26    24    25    1
    27    25    26    1
    28    16    17   ar
    29    17    18   ar
    30     4     5   ar
    31     5     6   ar
    32     6     7   ar
    33     7     8   ar
    34     8     9    1
    35     8    10   ar
    36    10    31    1
    37    31    32   ar
    38    32    33   ar
    39    33    34   ar
    40    34    35   ar
    41    35    36   ar
    42    45    46    1
    43    46    47    1
    44    47    48    1
    45    47    49    1
    46    47    40    1
    47    10     1   ar
    48    36    31   ar
    49     7     3   ar
    50    18    13   ar
    51    26    21    1
    52    37    38    1
    53     9    11    1
    54     9    12    1
@<TRIPOS>MOLECULE
*****
 49 54 0 0 0
SMALL
GASTEIGER

@<TRIPOS>ATOM
      1 C         141.6278  140.8307  160.9256 C.ar    1  UNL1        0.1327
      2 N         140.7207  140.5907  159.7552 N.ar    1  UNL1       -0.2119
      3 C         141.0506  139.5201  158.7578 C.ar    1  UNL1        0.1679
      4 C         140.3514  139.0571  157.5141 C.ar    1  UNL1        0.0568
      5 C         141.1563  137.9404  156.9182 C.ar    1  UNL1        0.1236
      6 N         142.3530  137.7132  157.7936 N.ar    1  UNL1       -0.1610
      7 N         142.2877  138.6895  158.9305 N.ar    1  UNL1       -0.1989
      8 C         143.1948  138.9295  160.1008 C.ar    1  UNL1        0.1311
      9 N         144.4318  138.0989  160.2736 N.pl3   1  UNL1       -0.3425
     10 C         142.8648  140.0001  161.0983 C.ar    1  UNL1        0.0626
     11 H         144.6484  137.3963  159.6189 H       1  UNL1        0.1437
     12 H         145.0272  138.2564  161.0417 H       1  UNL1        0.1437
     13 C         139.0719  139.6133  156.9630 C.ar    1  UNL1        0.0045
     14 C         138.3027  140.6384  157.7423 C.ar    1  UNL1        0.0003
     15 C         137.0231  141.1946  157.1913 C.ar    1  UNL1        0.0045
     16 C         136.5129  140.7256  155.8610 C.ar    1  UNL1        0.0536
     17 C         137.2822  139.7004  155.0817 C.ar    1  UNL1        0.0045
     18 C         138.5617  139.1442  155.6327 C.ar    1  UNL1        0.0003
     19 C         135.2335  141.2817  155.3099 C.2     1  UNL1        0.2491
     20 O         135.2708  142.2981  154.2074 O.2     1  UNL1       -0.2699
     21 N         133.9167  140.8214  155.8614 N.am    1  UNL1       -0.2731
     22 C         133.8794  139.8050  156.9640 C.3     1  UNL1        0.1129
     23 C         132.5625  139.3448  157.5154 C.3     1  UNL1        0.1169
     24 N         131.2830  139.9009  156.9644 N.3     1  UNL1       -0.1559
     25 C         131.3203  140.9172  155.8619 C.3     1  UNL1        0.1169
     26 C         132.6372  141.3775  155.3104 C.3     1  UNL1        0.1129
     27 S         129.9662  139.4406  157.5159 S.O2    1  UNL1        0.0458
     28 C         128.6494  138.9803  158.0674 C.3     1  UNL1        0.1960
     29 O         129.2504  140.3782  156.5893 O.2     1  UNL1       -0.1572
     30 O         130.6820  138.5030  158.4425 O.2     1  UNL1       -0.1572
     31 C         143.7720  140.2401  162.2686 C.ar    1  UNL1        0.0054
     32 C         144.7324  141.3921  162.2491 C.ar    1  UNL1        0.0002
     33 C         145.6396  141.6321  163.4194 C.ar    1  UNL1        0.0000
     34 C         145.5862  140.7201  164.6091 C.ar    1  UNL1        0.0000
     35 C         144.6257  139.5681  164.6285 C.ar    1  UNL1        0.0000
     36 C         143.7186  139.3281  163.4583 C.ar    1  UNL1        0.0002
     37 N         141.2979  141.9013  161.9230 N.pl3   1  UNL1       -0.3195
     38 H         141.3437  142.8492  161.6611 H       1  UNL1        0.1481
     39 C         139.6985  140.4067  167.5095 C.3     1  UNL1        0.0895
     40 N         140.0983  140.7803  166.1129 N.3     1  UNL1       -0.2764
     41 C         141.2826  141.6722  165.8850 C.3     1  UNL1        0.0470
     42 C         141.2957  141.5996  167.3832 C.3     1  UNL1        0.0161
     43 C         142.4715  142.5388  166.1774 C.3     1  UNL1        0.0161
     44 C         141.6825  142.0458  164.4884 C.3     1  UNL1        0.0342
     45 C         140.8980  141.5276  163.3197 C.3     1  UNL1        0.0730
     46 C         139.7137  140.6358  163.5475 C.3     1  UNL1        0.0342
     47 C         139.3139  140.2621  164.9441 C.3     1  UNL1        0.0470
     48 C         138.2638  139.5252  164.1666 C.3     1  UNL1        0.0161
     49 C         138.5493  139.6325  166.0706 C.3     1  UNL1        0.0161
@<TRIPOS>BOND
     1    39    40    1
     2    40    41    1
     3    41    42    1
     4    41    43    1
     5    41    44    1
     6    44    45    1
     7    45    37    1
     8    37     1    1
     9     1     2   ar
    10     2     3   ar
    11     3     4   ar
    12     4    13    1
    13    13    14   ar
    14    14    15   ar
    15    15    16   ar
    16    16    19    1
    17    19    20    2
    18    19    21   am
    19    21    22    1
    20    22    23    1
    21    23    24    1
    22    24    27    1
    23    27    28    1
    24    27    29    2
    25    27    30    2
    26    24    25    1
    27    25    26    1
    28    16    17   ar
    29    17    18   ar
    30     4     5   ar
    31     5     6   ar
    32     6     7   ar
    33     7     8   ar
    34     8     9    1
    35     8    10   ar
    36    10    31    1
    37    31    32   ar
    38    32    33   ar
    39    33    34   ar
    40    34    35   ar
    41    35    36   ar
    42    45    46    1
    43    46    47    1
    44    47    48    1
    45    47    49    1
    46    47    40    1
    47    10     1   ar
    48    36    31   ar
    49     7     3   ar
    50    18    13   ar
    51    26    21    1
    52    37    38    1
    53     9    11    1
    54     9    12    1
@<TRIPOS>MOLECULE
*****
 49 54 0 0 0
SMALL
GASTEIGER

@<TRIPOS>ATOM
      1 C         141.3776  140.7386  160.8863 C.ar    1  UNL1        0.1327
      2 N         140.5023  140.5381  159.6847 N.ar    1  UNL1       -0.2119
      3 C         140.8885  139.5400  158.6337 C.ar    1  UNL1        0.1679
      4 C         140.2302  139.1284  157.3503 C.ar    1  UNL1        0.0568
      5 C         141.0847  138.0763  156.7076 C.ar    1  UNL1        0.1236
      6 N         142.2711  137.8378  157.5938 N.ar    1  UNL1       -0.1610
      7 N         142.1499  138.7424  158.7842 N.ar    1  UNL1       -0.1989
      8 C         143.0252  138.9429  159.9857 C.ar    1  UNL1        0.1311
      9 N         144.2866  138.1453  160.1363 N.pl3   1  UNL1       -0.3425
     10 C         142.6390  139.9410  161.0368 C.ar    1  UNL1        0.0626
     11 H         144.5400  137.4902  159.4464 H       1  UNL1        0.1437
     12 H         144.8610  138.2769  160.9249 H       1  UNL1        0.1437
     13 C         138.9432  139.6731  156.8052 C.ar    1  UNL1        0.0045
     14 C         138.4032  139.1600  155.5033 C.ar    1  UNL1        0.0003
     15 C         137.1163  139.7047  154.9582 C.ar    1  UNL1        0.0045
     16 C         136.3693  140.7626  155.7151 C.ar    1  UNL1        0.0536
     17 C         136.9093  141.2757  157.0170 C.ar    1  UNL1        0.0045
     18 C         138.1963  140.7310  157.5622 C.ar    1  UNL1        0.0003
     19 C         135.0824  141.3073  155.1701 C.2     1  UNL1        0.2491
     20 O         135.1046  142.3004  154.0461 O.2     1  UNL1       -0.2699
     21 N         133.7733  140.8589  155.7491 N.am    1  UNL1       -0.2731
     22 C         133.7512  139.8658  156.8730 C.3     1  UNL1        0.1129
     23 C         132.4420  139.4175  157.4519 C.3     1  UNL1        0.1169
     24 N         131.1550  139.9622  156.9070 N.3     1  UNL1       -0.1559
     25 C         131.1772  140.9553  155.7830 C.3     1  UNL1        0.1169
     26 C         132.4864  141.4037  155.2040 C.3     1  UNL1        0.1129
     27 S         129.8460  139.5138  157.4859 S.O2    1  UNL1        0.0458
     28 C         128.5369  139.0654  158.0650 C.3     1  UNL1        0.1960
     29 O         130.5691  138.5343  158.3622 O.2     1  UNL1       -0.1572
     30 O         129.1228  140.4932  156.6097 O.2     1  UNL1       -0.1572
     31 C         143.5142  140.1415  162.2384 C.ar    1  UNL1        0.0054
     32 C         144.5339  141.2415  162.2483 C.ar    1  UNL1        0.0002
     33 C         145.4092  141.4420  163.4499 C.ar    1  UNL1        0.0000
     34 C         145.2648  140.5425  164.6415 C.ar    1  UNL1        0.0000
     35 C         144.2450  139.4424  164.6315 C.ar    1  UNL1        0.0000
     36 C         143.3698  139.2419  163.4300 C.ar    1  UNL1        0.0002
     37 N         140.9914  141.7367  161.9373 N.pl3   1  UNL1       -0.3195
     38 H         141.0055  142.6992  161.7310 H       1  UNL1        0.1481
     39 C         139.3606  139.8631  167.3990 C.3     1  UNL1        0.0895
     40 N         139.7683  140.3315  166.0336 N.3     1  UNL1       -0.2764
     41 C         139.3054  139.5875  164.8162 C.3     1  UNL1        0.0470
     42 C         138.6589  138.7609  165.8880 C.3     1  UNL1        0.0161
     43 C         138.6179  138.5564  163.9710 C.3     1  UNL1        0.0161
     44 C         139.7131  140.0559  163.4508 C.3     1  UNL1        0.0342
     45 C         140.5837  141.2683  163.3027 C.3     1  UNL1        0.0730
     46 C         141.0467  142.0123  164.5201 C.3     1  UNL1        0.0342
     47 C         140.6390  141.5439  165.8855 C.3     1  UNL1        0.0470
     48 C         141.4681  142.7377  166.2565 C.3     1  UNL1        0.0161
     49 C         140.5192  141.4902  167.3798 C.3     1  UNL1        0.0161
@<TRIPOS>BOND
     1    39    40    1
     2    40    41    1
     3    41    42    1
     4    41    43    1
     5    41    44    1
     6    44    45    1
     7    45    37    1
     8    37     1    1
     9     1     2   ar
    10     2     3   ar
    11     3     4   ar
    12     4    13    1
    13    13    14   ar
    14    14    15   ar
    15    15    16   ar
    16    16    19    1
    17    19    20    2
    18    19    21   am
    19    21    22    1
    20    22    23    1
    21    23    24    1
    22    24    27    1
    23    27    28    1
    24    27    29    2
    25    27    30    2
    26    24    25    1
    27    25    26    1
    28    16    17   ar
    29    17    18   ar
    30     4     5   ar
    31     5     6   ar
    32     6     7   ar
    33     7     8   ar
    34     8     9    1
    35     8    10   ar
    36    10    31    1
    37    31    32   ar
    38    32    33   ar
    39    33    34   ar
    40    34    35   ar
    41    35    36   ar
    42    45    46    1
    43    46    47    1
    44    47    48    1
    45    47    49    1
    46    47    40    1
    47    10     1   ar
    48    36    31   ar
    49     7     3   ar
    50    18    13   ar
    51    26    21    1
    52    37    38    1
    53     9    11    1
    54     9    12    1
