@<TRIPOS>MOLECULE
*****
 41 47 0 0 0
SMALL
GASTEIGER

@<TRIPOS>ATOM
      1 C         140.8152  141.1899  159.8345 C.3     1  UNL1        0.1707
      2 N         141.1402  140.1087  158.8470 N.3     1  UNL1       -0.2797
      3 C         142.4431  139.3718  158.9434 C.3     1  UNL1        0.1167
      4 C         143.4212  139.7162  160.0274 C.3     1  UNL1        0.0511
      5 C         143.0962  140.7975  161.0149 C.2     1  UNL1       -0.0037
      6 C         141.7933  141.5343  160.9185 C.2     1  UNL1        0.0800
      7 N         141.7493  142.5449  162.0261 N.2     1  UNL1       -0.2519
      8 C         143.0250  142.4326  162.8071 C.2     1  UNL1        0.0627
      9 C         143.5361  143.1742  164.0065 C.3     1  UNL1        0.0717
     10 C         144.8798  142.8358  164.5810 C.2     1  UNL1       -0.0198
     11 C         145.7123  141.7558  163.9560 C.2     1  UNL1       -0.0042
     12 C         145.2011  141.0142  162.7566 C.2     1  UNL1        0.0006
     13 C         143.8575  141.3526  162.1821 C.2     1  UNL1        0.0111
     14 H         141.1118  140.5368  157.9216 H       1  UNL1        0.1246
     15 C         142.7681  138.2904  157.9559 C.ar    1  UNL1        0.1319
     16 N         142.3889  136.8441  158.0756 N.ar    1  UNL1       -0.2282
     17 C         142.9158  136.1254  156.8690 C.ar    1  UNL1        0.1171
     18 C         143.6206  137.1275  156.0036 C.ar    1  UNL1        0.0942
     19 N         143.5294  138.4656  156.6754 N.ar    1  UNL1       -0.3385
     20 H         143.9034  139.3104  156.3354 H       1  UNL1        0.1672
     21 C         142.7643  134.6615  156.5788 C.ar    1  UNL1        0.1006
     22 C         141.7568  134.1974  155.5691 C.ar    1  UNL1        0.0230
     23 C         141.6054  132.7336  155.2789 C.ar    1  UNL1        0.0328
     24 C         142.4614  131.7339  155.9984 C.ar    1  UNL1        0.1592
     25 F         142.3100  130.2700  155.7082 F       1  UNL1       -0.2025
     26 C         143.4690  132.1980  157.0081 C.ar    1  UNL1        0.1284
     27 N         143.6204  133.6618  157.2983 N.ar    1  UNL1       -0.2399
     28 N         137.9290  141.8815  157.3332 N.ar    1  UNL1       -0.2497
     29 C         139.2715  142.2198  157.9107 C.ar    1  UNL1        0.0944
     30 C         139.5748  141.2254  158.9920 C.ar    1  UNL1        0.0439
     31 C         138.4198  140.2725  159.0828 C.ar    1  UNL1        0.1194
     32 N         137.4026  140.6781  158.0576 N.ar    1  UNL1       -0.1679
     33 C         136.0775  141.9825  155.5134 C.3     1  UNL1        0.0284
     34 C         137.2348  142.6175  156.2258 C.3     1  UNL1        0.1276
     35 C         140.0595  142.2836  160.5295 C.ar    1  UNL1        0.2487
     36 N         140.0880  143.7399  160.1717 N.ar    1  UNL1       -0.1088
     37 N         139.1886  144.4692  161.1254 N.ar    1  UNL1       -0.1009
     38 C         138.6044  143.4635  162.0725 C.ar    1  UNL1        0.2781
     39 O         139.1427  142.1126  161.7043 O.2     1  UNL1       -0.4128
     40 S         137.6496  143.7570  163.1916 S.3     1  UNL1       -0.0544
     41 C         138.1624  144.3027  164.4913 C.3     1  UNL1        0.0789
@<TRIPOS>BOND
     1    33    34    1
     2    34    28    1
     3    28    29   ar
     4    29    30   ar
     5     1    30    1
     6     1    35    1
     7    35    36   ar
     8    36    37   ar
     9    37    38   ar
    10    38    40    1
    11    40    41    1
    12    38    39   ar
    13     1     2    1
    14     2     3    1
    15     3    15    1
    16    15    16   ar
    17    16    17   ar
    18    17    21    1
    19    21    22   ar
    20    22    23   ar
    21    23    24   ar
    22    24    25    1
    23    24    26   ar
    24    26    27   ar
    25    17    18   ar
    26    18    19   ar
    27     3     4    1
    28     4     5    1
    29     5     6    2
    30     6     7    1
    31     7     8    2
    32     8     9    1
    33     9    10    1
    34    10    11    2
    35    11    12    1
    36    12    13    2
    37    30    31   ar
    38    31    32   ar
    39    32    28   ar
    40     6     1    1
    41    13     8    1
    42    39    35   ar
    43    19    15   ar
    44    13     5    1
    45    27    21   ar
    46     2    14    1
    47    19    20    1
@<TRIPOS>MOLECULE
*****
 41 47 0 0 0
SMALL
GASTEIGER

@<TRIPOS>ATOM
      1 C         142.3823  142.6595  160.1982 C.3     1  UNL1        0.1707
      2 N         141.8673  143.2769  158.9320 N.3     1  UNL1       -0.2797
      3 C         140.6965  144.2135  158.9765 C.3     1  UNL1        0.1167
      4 C         140.0407  144.5327  160.2872 C.3     1  UNL1        0.0511
      5 C         140.5557  143.9153  161.5535 C.2     1  UNL1       -0.0037
      6 C         141.7265  142.9787  161.5090 C.2     1  UNL1        0.0800
      7 N         142.0110  142.5254  162.9103 N.2     1  UNL1       -0.2519
      8 C         141.0160  143.1819  163.8209 C.2     1  UNL1        0.0627
      9 C         140.8128  143.1086  165.3052 C.3     1  UNL1        0.0717
     10 C         139.7102  143.8941  165.9509 C.2     1  UNL1       -0.0198
     11 C         138.8108  144.7531  165.1124 C.2     1  UNL1       -0.0042
     12 C         139.0139  144.8265  163.6280 C.2     1  UNL1        0.0006
     13 C         140.1166  144.0409  162.9823 C.2     1  UNL1        0.0111
     14 H         141.6061  142.5082  158.3145 H       1  UNL1        0.1246
     15 C         140.1814  144.8310  157.7101 C.ar    1  UNL1        0.1319
     16 N         140.3789  146.2542  157.2795 N.ar    1  UNL1       -0.2282
     17 C         139.6980  146.4365  155.9554 C.ar    1  UNL1        0.1171
     18 C         139.0797  145.1260  155.5678 C.ar    1  UNL1        0.0942
     19 N         139.3785  144.1338  156.6523 N.ar    1  UNL1       -0.3385
     20 H         139.0970  143.1905  156.6671 H       1  UNL1        0.1672
     21 C         139.6448  147.7065  155.1588 C.ar    1  UNL1        0.1006
     22 C         140.2875  147.7701  153.8050 C.ar    1  UNL1        0.0230
     23 C         140.2343  149.0399  153.0084 C.ar    1  UNL1        0.0328
     24 C         139.5383  150.2462  153.5656 C.ar    1  UNL1        0.1592
     25 F         139.4851  151.5161  152.7690 F       1  UNL1       -0.2025
     26 C         138.8956  150.1826  154.9195 C.ar    1  UNL1        0.1284
     27 N         138.9488  148.9127  155.7160 N.ar    1  UNL1       -0.2399
     28 N         145.1143  141.7884  157.5824 N.ar    1  UNL1       -0.2497
     29 C         144.4109  142.7794  158.4618 C.ar    1  UNL1        0.0944
     30 C         143.3314  142.0527  159.2079 C.ar    1  UNL1        0.0439
     31 C         143.3677  140.6126  158.7896 C.ar    1  UNL1        0.1194
     32 N         144.4696  140.4493  157.7850 N.ar    1  UNL1       -0.1679
     33 C         147.4288  142.8880  157.1533 C.3     1  UNL1        0.0284
     34 C         146.2612  142.0846  156.6621 C.3     1  UNL1        0.1276
     35 C         143.2269  141.8313  161.1206 C.ar    1  UNL1        0.2487
     36 N         144.6261  142.1486  161.5581 N.ar    1  UNL1       -0.1088
     37 N         145.0845  141.0538  162.4754 N.ar    1  UNL1       -0.1009
     38 C         143.9686  140.0598  162.6047 C.ar    1  UNL1        0.2781
     39 O         142.8205  140.5404  161.7674 O.2     1  UNL1       -0.4128
     40 S         143.9959  138.8055  163.4269 S.3     1  UNL1       -0.0544
     41 C         143.8220  138.8803  164.9149 C.3     1  UNL1        0.0789
@<TRIPOS>BOND
     1    33    34    1
     2    34    28    1
     3    28    29   ar
     4    29    30   ar
     5     1    30    1
     6     1    35    1
     7    35    36   ar
     8    36    37   ar
     9    37    38   ar
    10    38    40    1
    11    40    41    1
    12    38    39   ar
    13     1     2    1
    14     2     3    1
    15     3    15    1
    16    15    16   ar
    17    16    17   ar
    18    17    21    1
    19    21    22   ar
    20    22    23   ar
    21    23    24   ar
    22    24    25    1
    23    24    26   ar
    24    26    27   ar
    25    17    18   ar
    26    18    19   ar
    27     3     4    1
    28     4     5    1
    29     5     6    2
    30     6     7    1
    31     7     8    2
    32     8     9    1
    33     9    10    1
    34    10    11    2
    35    11    12    1
    36    12    13    2
    37    30    31   ar
    38    31    32   ar
    39    32    28   ar
    40     6     1    1
    41    13     8    1
    42    39    35   ar
    43    19    15   ar
    44    13     5    1
    45    27    21   ar
    46     2    14    1
    47    19    20    1
@<TRIPOS>MOLECULE
*****
 41 47 0 0 0
SMALL
GASTEIGER

@<TRIPOS>ATOM
      1 C         139.5081  140.9911  159.5031 C.3     1  UNL1        0.1707
      2 N         139.7369  139.6666  158.8373 N.3     1  UNL1       -0.2797
      3 C         140.2189  139.6141  157.4179 C.3     1  UNL1        0.1167
      4 C         140.4721  140.8860  156.6642 C.3     1  UNL1        0.0511
      5 C         140.2433  142.2105  157.3299 C.2     1  UNL1       -0.0037
      6 C         139.7613  142.2631  158.7494 C.2     1  UNL1        0.0800
      7 N         139.6257  143.7051  159.1397 N.2     1  UNL1       -0.2519
      8 C         140.0240  144.5437  157.9615 C.2     1  UNL1        0.0627
      9 C         140.0883  146.0290  157.7626 C.3     1  UNL1        0.0717
     10 C         140.5344  146.5906  156.4453 C.2     1  UNL1       -0.0198
     11 C         140.9161  145.6670  155.3267 C.2     1  UNL1       -0.0042
     12 C         140.8517  144.1816  155.5256 C.2     1  UNL1        0.0006
     13 C         140.4056  143.6200  156.8430 C.2     1  UNL1        0.0111
     14 H         138.8489  139.1656  158.8655 H       1  UNL1        0.1246
     15 C         140.4477  138.2895  156.7520 C.ar    1  UNL1        0.1319
     16 N         141.5748  137.3420  157.0381 N.ar    1  UNL1       -0.2282
     17 C         141.4134  136.1468  156.1462 C.ar    1  UNL1        0.1171
     18 C         140.1865  136.3557  155.3089 C.ar    1  UNL1        0.0942
     19 N         139.5897  137.6800  155.6833 N.ar    1  UNL1       -0.3385
     20 H         138.7774  138.0790  155.2957 H       1  UNL1        0.1672
     21 C         142.3197  134.9525  156.0997 C.ar    1  UNL1        0.1006
     22 C         142.2739  134.0215  154.9245 C.ar    1  UNL1        0.0230
     23 C         143.1802  132.8272  154.8780 C.ar    1  UNL1        0.0328
     24 C         144.1323  132.5638  156.0068 C.ar    1  UNL1        0.1592
     25 F         145.0386  131.3695  155.9603 F       1  UNL1       -0.2025
     26 C         144.1781  133.4948  157.1820 C.ar    1  UNL1        0.1284
     27 N         143.2718  134.6891  157.2285 N.ar    1  UNL1       -0.2399
     28 N         139.2636  138.6230  162.5686 N.ar    1  UNL1       -0.2497
     29 C         140.0659  139.4863  161.6406 C.ar    1  UNL1        0.0944
     30 C         139.1298  140.0679  160.6231 C.ar    1  UNL1        0.0439
     31 C         137.7489  139.5642  160.9222 C.ar    1  UNL1        0.1194
     32 N         137.8316  138.6712  162.1247 N.ar    1  UNL1       -0.1679
     33 C         138.9770  137.7051  164.9822 C.3     1  UNL1        0.0284
     34 C         139.7992  137.8478  163.7357 C.3     1  UNL1        0.1276
     35 C         139.1479  141.9951  160.5578 C.ar    1  UNL1        0.2487
     36 N         137.8011  142.6266  160.7507 N.ar    1  UNL1       -0.1088
     37 N         137.8922  143.5656  161.9170 N.ar    1  UNL1       -0.1009
     38 C         139.2953  143.5144  162.4448 C.ar    1  UNL1        0.2781
     39 O         140.0714  142.5437  161.6047 O.2     1  UNL1       -0.4128
     40 S         139.8288  144.2965  163.6083 S.3     1  UNL1       -0.0544
     41 C         138.8932  144.7926  164.6706 C.3     1  UNL1        0.0789
@<TRIPOS>BOND
     1    33    34    1
     2    34    28    1
     3    28    29   ar
     4    29    30   ar
     5     1    30    1
     6     1    35    1
     7    35    36   ar
     8    36    37   ar
     9    37    38   ar
    10    38    40    1
    11    40    41    1
    12    38    39   ar
    13     1     2    1
    14     2     3    1
    15     3    15    1
    16    15    16   ar
    17    16    17   ar
    18    17    21    1
    19    21    22   ar
    20    22    23   ar
    21    23    24   ar
    22    24    25    1
    23    24    26   ar
    24    26    27   ar
    25    17    18   ar
    26    18    19   ar
    27     3     4    1
    28     4     5    1
    29     5     6    2
    30     6     7    1
    31     7     8    2
    32     8     9    1
    33     9    10    1
    34    10    11    2
    35    11    12    1
    36    12    13    2
    37    30    31   ar
    38    31    32   ar
    39    32    28   ar
    40     6     1    1
    41    13     8    1
    42    39    35   ar
    43    19    15   ar
    44    13     5    1
    45    27    21   ar
    46     2    14    1
    47    19    20    1
@<TRIPOS>MOLECULE
*****
 41 47 0 0 0
SMALL
GASTEIGER

@<TRIPOS>ATOM
      1 C         141.3684  141.2491  160.2007 C.3     1  UNL1        0.1707
      2 N         140.8197  142.0853  159.0827 N.3     1  UNL1       -0.2797
      3 C         140.9595  143.5781  159.1244 C.3     1  UNL1        0.1167
      4 C         141.6481  144.2348  160.2841 C.3     1  UNL1        0.0511
      5 C         142.1967  143.3987  161.4020 C.2     1  UNL1       -0.0037
      6 C         142.0569  141.9058  161.3603 C.2     1  UNL1        0.0800
      7 N         142.6930  141.3460  162.5980 N.2     1  UNL1       -0.2519
      8 C         143.2260  142.4928  163.4046 C.2     1  UNL1        0.0627
      9 C         143.9510  142.5458  164.7167 C.3     1  UNL1        0.0717
     10 C         144.3692  143.8674  165.2895 C.2     1  UNL1       -0.0198
     11 C         144.0625  145.1361  164.5504 C.2     1  UNL1       -0.0042
     12 C         143.3375  145.0831  163.2383 C.2     1  UNL1        0.0006
     13 C         142.9193  143.7615  162.6654 C.2     1  UNL1        0.0111
     14 H         139.8212  141.8845  159.0275 H       1  UNL1        0.1246
     15 C         140.4108  144.4144  158.0065 C.ar    1  UNL1        0.1319
     16 N         140.2154  145.9014  158.0318 N.ar    1  UNL1       -0.2282
     17 C         139.6451  146.3164  156.7080 C.ar    1  UNL1        0.1171
     18 C         139.4880  145.0860  155.8646 C.ar    1  UNL1        0.0942
     19 N         139.9613  143.9104  156.6671 N.ar    1  UNL1       -0.3385
     20 H         139.9745  142.9728  156.3674 H       1  UNL1        0.1672
     21 C         139.2935  147.7163  156.2993 C.ar    1  UNL1        0.1006
     22 C         139.6857  148.2224  154.9428 C.ar    1  UNL1        0.0230
     23 C         139.3341  149.6222  154.5341 C.ar    1  UNL1        0.0328
     24 C         138.5905  150.5158  155.4819 C.ar    1  UNL1        0.1592
     25 F         138.2390  151.9156  155.0733 F       1  UNL1       -0.2025
     26 C         138.1984  150.0097  156.8384 C.ar    1  UNL1        0.1284
     27 N         138.5499  148.6099  157.2471 N.ar    1  UNL1       -0.2399
     28 N         140.6236  138.3275  157.7563 N.ar    1  UNL1       -0.2497
     29 C         141.5905  139.2361  158.4560 C.ar    1  UNL1        0.0944
     30 C         140.8021  140.1721  159.3235 C.ar    1  UNL1        0.0439
     31 C         139.3480  139.8419  159.1599 C.ar    1  UNL1        0.1194
     32 N         139.2377  138.7019  158.1913 N.ar    1  UNL1       -0.1679
     33 C         142.4062  137.0465  156.3666 C.3     1  UNL1        0.0284
     34 C         140.9800  137.2361  156.7910 C.3     1  UNL1        0.1276
     35 C         141.7204  140.0389  161.0140 C.ar    1  UNL1        0.2487
     36 N         143.0193  139.2905  160.9642 N.ar    1  UNL1       -0.1088
     37 N         142.9369  138.1537  161.9394 N.ar    1  UNL1       -0.1009
     38 C         141.5871  138.1996  162.5919 C.ar    1  UNL1        0.2781
     39 O         140.8352  139.3648  162.0199 O.2     1  UNL1       -0.4128
     40 S         141.0784  137.2475  163.6335 S.3     1  UNL1       -0.0544
     41 C         140.0714  137.7099  164.6445 C.3     1  UNL1        0.0789
@<TRIPOS>BOND
     1    33    34    1
     2    34    28    1
     3    28    29   ar
     4    29    30   ar
     5     1    30    1
     6     1    35    1
     7    35    36   ar
     8    36    37   ar
     9    37    38   ar
    10    38    40    1
    11    40    41    1
    12    38    39   ar
    13     1     2    1
    14     2     3    1
    15     3    15    1
    16    15    16   ar
    17    16    17   ar
    18    17    21    1
    19    21    22   ar
    20    22    23   ar
    21    23    24   ar
    22    24    25    1
    23    24    26   ar
    24    26    27   ar
    25    17    18   ar
    26    18    19   ar
    27     3     4    1
    28     4     5    1
    29     5     6    2
    30     6     7    1
    31     7     8    2
    32     8     9    1
    33     9    10    1
    34    10    11    2
    35    11    12    1
    36    12    13    2
    37    30    31   ar
    38    31    32   ar
    39    32    28   ar
    40     6     1    1
    41    13     8    1
    42    39    35   ar
    43    19    15   ar
    44    13     5    1
    45    27    21   ar
    46     2    14    1
    47    19    20    1
@<TRIPOS>MOLECULE
*****
 41 47 0 0 0
SMALL
GASTEIGER

@<TRIPOS>ATOM
      1 C         139.6981  141.5473  159.9513 C.3     1  UNL1        0.1707
      2 N         139.7904  140.7145  158.7071 N.3     1  UNL1       -0.2797
      3 C         139.6639  139.2223  158.7924 C.3     1  UNL1        0.1167
      4 C         139.4452  138.5628  160.1218 C.3     1  UNL1        0.0511
      5 C         139.3529  139.3956  161.3659 C.2     1  UNL1       -0.0037
      6 C         139.4793  140.8878  161.2807 C.2     1  UNL1        0.0800
      7 N         139.3476  141.4441  162.6675 N.2     1  UNL1       -0.2519
      8 C         139.1398  140.2957  163.6098 C.2     1  UNL1        0.0627
      9 C         138.9479  140.2392  165.0964 C.3     1  UNL1        0.0717
     10 C         138.7594  138.9167  165.7786 C.2     1  UNL1       -0.0198
     11 C         138.7627  137.6507  164.9742 C.2     1  UNL1       -0.0042
     12 C         138.9545  137.7071  163.4876 C.2     1  UNL1        0.0006
     13 C         139.1430  139.0296  162.8054 C.2     1  UNL1        0.0111
     14 H         140.7001  140.9095  158.2891 H       1  UNL1        0.1246
     15 C         139.7562  138.3894  157.5482 C.ar    1  UNL1        0.1319
     16 N         140.6978  137.2439  157.3220 N.ar    1  UNL1       -0.2282
     17 C         140.4467  136.7024  155.9458 C.ar    1  UNL1        0.1171
     18 C         139.3500  137.5133  155.3216 C.ar    1  UNL1        0.0942
     19 N         138.9233  138.5559  156.3119 N.ar    1  UNL1       -0.3385
     20 H         138.2200  139.2310  156.1746 H       1  UNL1        0.1672
     21 C         141.1660  135.5519  155.3062 C.ar    1  UNL1        0.1006
     22 C         140.9639  135.2576  153.8493 C.ar    1  UNL1        0.0230
     23 C         141.6832  134.1072  153.2097 C.ar    1  UNL1        0.0328
     24 C         142.6046  133.2511  154.0270 C.ar    1  UNL1        0.1592
     25 F         143.3240  132.1007  153.3874 F       1  UNL1       -0.2025
     26 C         142.8068  133.5454  155.4839 C.ar    1  UNL1        0.1284
     27 N         142.0875  134.6958  156.1235 N.ar    1  UNL1       -0.2399
     28 N         139.5276  144.2081  157.1306 N.ar    1  UNL1       -0.2497
     29 C         138.8871  143.1339  157.9588 C.ar    1  UNL1        0.0944
     30 C         139.9103  142.6260  158.9310 C.ar    1  UNL1        0.0439
     31 C         141.1832  143.3865  158.7036 C.ar    1  UNL1        0.1194
     32 N         140.9466  144.3643  157.5909 N.ar    1  UNL1       -0.1679
     33 C         137.8702  144.3205  155.1330 C.3     1  UNL1        0.0284
     34 C         138.8652  144.9892  156.0346 C.3     1  UNL1        0.1276
     35 C         139.6795  142.7547  160.8412 C.ar    1  UNL1        0.2487
     36 N         138.4898  143.6232  161.1241 N.ar    1  UNL1       -0.1088
     37 N         138.9225  144.7108  162.0621 N.ar    1  UNL1       -0.1009
     38 C         140.3796  144.5145  162.3589 C.ar    1  UNL1        0.2781
     39 O         140.8475  143.3055  161.6043 O.2     1  UNL1       -0.4128
     40 S         141.2211  145.3759  163.2532 S.3     1  UNL1       -0.0544
     41 C         142.6492  145.0055  163.5241 C.3     1  UNL1        0.0789
@<TRIPOS>BOND
     1    33    34    1
     2    34    28    1
     3    28    29   ar
     4    29    30   ar
     5     1    30    1
     6     1    35    1
     7    35    36   ar
     8    36    37   ar
     9    37    38   ar
    10    38    40    1
    11    40    41    1
    12    38    39   ar
    13     1     2    1
    14     2     3    1
    15     3    15    1
    16    15    16   ar
    17    16    17   ar
    18    17    21    1
    19    21    22   ar
    20    22    23   ar
    21    23    24   ar
    22    24    25    1
    23    24    26   ar
    24    26    27   ar
    25    17    18   ar
    26    18    19   ar
    27     3     4    1
    28     4     5    1
    29     5     6    2
    30     6     7    1
    31     7     8    2
    32     8     9    1
    33     9    10    1
    34    10    11    2
    35    11    12    1
    36    12    13    2
    37    30    31   ar
    38    31    32   ar
    39    32    28   ar
    40     6     1    1
    41    13     8    1
    42    39    35   ar
    43    19    15   ar
    44    13     5    1
    45    27    21   ar
    46     2    14    1
    47    19    20    1
@<TRIPOS>MOLECULE
*****
 41 47 0 0 0
SMALL
GASTEIGER

@<TRIPOS>ATOM
      1 C         141.9193  143.7597  159.3745 C.3     1  UNL1        0.1707
      2 N         142.6426  143.4301  158.1024 N.3     1  UNL1       -0.2797
      3 C         143.9926  142.7784  158.1545 C.3     1  UNL1        0.1167
      4 C         144.6194  142.4563  159.4787 C.3     1  UNL1        0.0511
      5 C         143.8961  142.7858  160.7508 C.2     1  UNL1       -0.0037
      6 C         142.5461  143.4375  160.6986 C.2     1  UNL1        0.0800
      7 N         142.0759  143.6430  162.1082 N.2     1  UNL1       -0.2519
      8 C         143.1354  143.1183  163.0314 C.2     1  UNL1        0.0627
      9 C         143.2210  143.0545  164.5275 C.3     1  UNL1        0.0717
     10 C         144.4316  142.4609  165.1847 C.2     1  UNL1       -0.0198
     11 C         145.5566  141.9311  164.3458 C.2     1  UNL1       -0.0042
     12 C         145.4709  141.9949  162.8497 C.2     1  UNL1        0.0006
     13 C         144.2603  142.5885  162.1924 C.2     1  UNL1        0.0111
     14 H         142.7582  144.3067  157.5938 H       1  UNL1        0.1246
     15 C         144.7160  142.4488  156.8823 C.ar    1  UNL1        0.1319
     16 N         146.2032  142.3490  156.7143 N.ar    1  UNL1       -0.2282
     17 C         146.4854  141.9996  155.2831 C.ar    1  UNL1        0.1171
     18 C         145.1727  141.8836  154.5667 C.ar    1  UNL1        0.0942
     19 N         144.0791  142.1612  155.5551 N.ar    1  UNL1       -0.3385
     20 H         143.1130  142.1556  155.3659 H       1  UNL1        0.1672
     21 C         147.8423  141.8012  154.6751 C.ar    1  UNL1        0.1006
     22 C         149.0575  141.7507  155.5530 C.ar    1  UNL1        0.0230
     23 C         150.4143  141.5523  154.9451 C.ar    1  UNL1        0.0328
     24 C         150.5559  141.4043  153.4592 C.ar    1  UNL1        0.1592
     25 F         151.9128  141.2059  152.8512 F       1  UNL1       -0.2025
     26 C         149.3408  141.4549  152.5812 C.ar    1  UNL1        0.1284
     27 N         147.9840  141.6533  153.1891 N.ar    1  UNL1       -0.2399
     28 N         139.7332  145.6839  156.8086 N.ar    1  UNL1       -0.2497
     29 C         140.8982  145.6220  157.7515 C.ar    1  UNL1        0.0944
     30 C         140.9210  144.2561  158.3711 C.ar    1  UNL1        0.0439
     31 C         139.7701  143.4739  157.8111 C.ar    1  UNL1        0.1194
     32 N         139.0360  144.3563  156.8455 N.ar    1  UNL1       -0.1679
     33 C         140.0068  147.1143  154.6571 C.3     1  UNL1        0.0284
     34 C         139.3353  146.8659  155.9752 C.3     1  UNL1        0.1276
     35 C         140.8493  144.2617  160.2982 C.ar    1  UNL1        0.2487
     36 N         140.5716  145.6984  160.6274 N.ar    1  UNL1       -0.1088
     37 N         139.4198  145.7396  161.5875 N.ar    1  UNL1       -0.1009
     38 C         138.9858  144.3283  161.8516 C.ar    1  UNL1        0.2781
     39 O         139.8693  143.4149  161.0547 O.2     1  UNL1       -0.4128
     40 S         137.8649  143.9048  162.7540 S.3     1  UNL1       -0.0544
     41 C         137.6122  142.4474  163.0028 C.3     1  UNL1        0.0789
@<TRIPOS>BOND
     1    33    34    1
     2    34    28    1
     3    28    29   ar
     4    29    30   ar
     5     1    30    1
     6     1    35    1
     7    35    36   ar
     8    36    37   ar
     9    37    38   ar
    10    38    40    1
    11    40    41    1
    12    38    39   ar
    13     1     2    1
    14     2     3    1
    15     3    15    1
    16    15    16   ar
    17    16    17   ar
    18    17    21    1
    19    21    22   ar
    20    22    23   ar
    21    23    24   ar
    22    24    25    1
    23    24    26   ar
    24    26    27   ar
    25    17    18   ar
    26    18    19   ar
    27     3     4    1
    28     4     5    1
    29     5     6    2
    30     6     7    1
    31     7     8    2
    32     8     9    1
    33     9    10    1
    34    10    11    2
    35    11    12    1
    36    12    13    2
    37    30    31   ar
    38    31    32   ar
    39    32    28   ar
    40     6     1    1
    41    13     8    1
    42    39    35   ar
    43    19    15   ar
    44    13     5    1
    45    27    21   ar
    46     2    14    1
    47    19    20    1
@<TRIPOS>MOLECULE
*****
 41 47 0 0 0
SMALL
GASTEIGER

@<TRIPOS>ATOM
      1 C         140.9925  142.3934  159.2937 C.3     1  UNL1        0.1707
      2 N         139.7212  141.9931  158.6055 N.3     1  UNL1       -0.2797
      3 C         139.7564  141.5147  157.1843 C.3     1  UNL1        0.1167
      4 C         141.0627  141.4367  156.4513 C.3     1  UNL1        0.0511
      5 C         142.3340  141.8370  157.1395 C.2     1  UNL1       -0.0037
      6 C         142.2989  142.3153  158.5607 C.2     1  UNL1        0.0800
      7 N         143.7034  142.6401  158.9753 N.2     1  UNL1       -0.2519
      8 C         144.6065  142.3625  157.8103 C.2     1  UNL1        0.0627
      9 C         146.0902  142.4975  157.6360 C.3     1  UNL1        0.0717
     10 C         146.7275  142.1362  156.3271 C.2     1  UNL1       -0.0198
     11 C         145.8812  141.6398  155.1925 C.2     1  UNL1       -0.0042
     12 C         144.3975  141.5048  155.3668 C.2     1  UNL1        0.0006
     13 C         143.7602  141.8661  156.6757 C.2     1  UNL1        0.0111
     14 H         139.1059  142.8063  158.6274 H       1  UNL1        0.1246
     15 C         138.4851  141.1144  156.4960 C.ar    1  UNL1        0.1319
     16 N         137.1111  141.1410  157.0971 N.ar    1  UNL1       -0.2282
     17 C         136.1414  140.6602  156.0584 C.ar    1  UNL1        0.1171
     18 C         136.9162  140.3365  154.8155 C.ar    1  UNL1        0.0942
     19 N         138.3647  140.6172  155.0860 N.ar    1  UNL1       -0.3385
     20 H         139.1062  140.4964  154.4497 H       1  UNL1        0.1672
     21 C         134.6575  140.5266  156.2323 C.ar    1  UNL1        0.1006
     22 C         133.7260  141.2970  155.3442 C.ar    1  UNL1        0.0230
     23 C         132.2421  141.1634  155.5180 C.ar    1  UNL1        0.0328
     24 C         131.6898  140.2595  156.5799 C.ar    1  UNL1        0.1592
     25 F         130.2058  140.1259  156.7537 F       1  UNL1       -0.2025
     26 C         132.6213  139.4891  157.4680 C.ar    1  UNL1        0.1284
     27 N         134.1051  139.6226  157.2942 N.ar    1  UNL1       -0.2399
     28 N         138.4012  142.2806  162.1813 N.ar    1  UNL1       -0.2497
     29 C         139.2783  141.5886  161.1802 C.ar    1  UNL1        0.0944
     30 C         140.0090  142.6402  160.3991 C.ar    1  UNL1        0.0439
     31 C         139.5837  143.9821  160.9174 C.ar    1  UNL1        0.1194
     32 N         138.5900  143.7598  162.0189 N.ar    1  UNL1       -0.1679
     33 C         138.0641  140.6763  164.1969 C.3     1  UNL1        0.0284
     34 C         137.4946  141.6109  163.1711 C.3     1  UNL1        0.1276
     35 C         141.9223  142.8794  160.3659 C.ar    1  UNL1        0.2487
     36 N         142.4115  144.2869  160.5370 N.ar    1  UNL1       -0.1088
     37 N         143.3176  144.3206  161.7320 N.ar    1  UNL1       -0.1009
     38 C         143.3883  142.9338  162.2993 C.ar    1  UNL1        0.2781
     39 O         142.5259  142.0431  161.4549 O.2     1  UNL1       -0.4128
     40 S         144.1821  142.5119  163.5001 S.3     1  UNL1       -0.0544
     41 C         145.5385  141.8961  163.3240 C.3     1  UNL1        0.0789
@<TRIPOS>BOND
     1    33    34    1
     2    34    28    1
     3    28    29   ar
     4    29    30   ar
     5     1    30    1
     6     1    35    1
     7    35    36   ar
     8    36    37   ar
     9    37    38   ar
    10    38    40    1
    11    40    41    1
    12    38    39   ar
    13     1     2    1
    14     2     3    1
    15     3    15    1
    16    15    16   ar
    17    16    17   ar
    18    17    21    1
    19    21    22   ar
    20    22    23   ar
    21    23    24   ar
    22    24    25    1
    23    24    26   ar
    24    26    27   ar
    25    17    18   ar
    26    18    19   ar
    27     3     4    1
    28     4     5    1
    29     5     6    2
    30     6     7    1
    31     7     8    2
    32     8     9    1
    33     9    10    1
    34    10    11    2
    35    11    12    1
    36    12    13    2
    37    30    31   ar
    38    31    32   ar
    39    32    28   ar
    40     6     1    1
    41    13     8    1
    42    39    35   ar
    43    19    15   ar
    44    13     5    1
    45    27    21   ar
    46     2    14    1
    47    19    20    1
@<TRIPOS>MOLECULE
*****
 41 47 0 0 0
SMALL
GASTEIGER

@<TRIPOS>ATOM
      1 C         141.6752  141.9972  161.4509 C.3     1  UNL1        0.1707
      2 N         141.9205  141.2711  160.1615 N.3     1  UNL1       -0.2797
      3 C         142.4845  139.8813  160.1790 C.3     1  UNL1        0.1167
      4 C         142.8031  139.2176  161.4859 C.3     1  UNL1        0.0511
      5 C         142.5578  139.9437  162.7753 C.2     1  UNL1       -0.0037
      6 C         141.9938  141.3335  162.7578 C.2     1  UNL1        0.0800
      7 N         141.8598  141.7972  164.1780 N.2     1  UNL1       -0.2519
      8 C         142.3409  140.6939  165.0733 C.2     1  UNL1        0.0627
      9 C         142.4420  140.5845  166.5658 C.3     1  UNL1        0.0717
     10 C         142.9744  139.3295  167.1914 C.2     1  UNL1       -0.0198
     11 C         143.4058  138.1839  166.3245 C.2     1  UNL1       -0.0042
     12 C         143.3047  138.2934  164.8319 C.2     1  UNL1        0.0006
     13 C         142.7723  139.5484  164.2063 C.2     1  UNL1        0.0111
     14 H         142.5668  141.8443  159.6192 H       1  UNL1        0.1246
     15 C         142.7299  139.1551  158.8896 C.ar    1  UNL1        0.1319
     16 N         142.6435  137.6720  158.6828 N.ar    1  UNL1       -0.2282
     17 C         142.9649  137.3849  157.2460 C.ar    1  UNL1        0.1171
     18 C         143.2499  138.6906  156.5649 C.ar    1  UNL1        0.0942
     19 N         143.1046  139.7847  157.5807 N.ar    1  UNL1       -0.3385
     20 H         143.2327  140.7470  157.4170 H       1  UNL1        0.1672
     21 C         142.9959  136.0299  156.6033 C.ar    1  UNL1        0.1006
     22 C         142.6869  135.8854  155.1426 C.ar    1  UNL1        0.0230
     23 C         142.7179  134.5305  154.4998 C.ar    1  UNL1        0.0328
     24 C         143.0579  133.3200  155.3177 C.ar    1  UNL1        0.1592
     25 F         143.0889  131.9650  154.6749 F       1  UNL1       -0.2025
     26 C         143.3670  133.4645  156.7784 C.ar    1  UNL1        0.1284
     27 N         143.3360  134.8194  157.4212 N.ar    1  UNL1       -0.2399
     28 N         141.2230  144.8004  158.8047 N.ar    1  UNL1       -0.2497
     29 C         142.1011  143.9081  159.6310 C.ar    1  UNL1        0.0944
     30 C         141.2159  143.0387  160.4741 C.ar    1  UNL1        0.0439
     31 C         139.7909  143.3938  160.1687 C.ar    1  UNL1        0.1194
     32 N         139.7953  144.4826  159.1370 N.ar    1  UNL1       -0.1679
     33 C         140.8215  146.2028  156.6547 C.3     1  UNL1        0.0284
     34 C         141.6907  145.8299  157.8190 C.3     1  UNL1        0.1276
     35 C         141.2703  143.0850  162.4012 C.ar    1  UNL1        0.2487
     36 N         142.0808  144.2981  162.7495 N.ar    1  UNL1       -0.1088
     37 N         141.2952  145.1135  163.7335 N.ar    1  UNL1       -0.1009
     38 C         139.9993  144.4042  163.9932 C.ar    1  UNL1        0.2781
     39 O         139.9839  143.1505  163.1697 O.2     1  UNL1       -0.4128
     40 S         138.9100  144.8674  164.9146 S.3     1  UNL1       -0.0544
     41 C         137.5589  144.2176  164.8648 C.3     1  UNL1        0.0789
@<TRIPOS>BOND
     1    33    34    1
     2    34    28    1
     3    28    29   ar
     4    29    30   ar
     5     1    30    1
     6     1    35    1
     7    35    36   ar
     8    36    37   ar
     9    37    38   ar
    10    38    40    1
    11    40    41    1
    12    38    39   ar
    13     1     2    1
    14     2     3    1
    15     3    15    1
    16    15    16   ar
    17    16    17   ar
    18    17    21    1
    19    21    22   ar
    20    22    23   ar
    21    23    24   ar
    22    24    25    1
    23    24    26   ar
    24    26    27   ar
    25    17    18   ar
    26    18    19   ar
    27     3     4    1
    28     4     5    1
    29     5     6    2
    30     6     7    1
    31     7     8    2
    32     8     9    1
    33     9    10    1
    34    10    11    2
    35    11    12    1
    36    12    13    2
    37    30    31   ar
    38    31    32   ar
    39    32    28   ar
    40     6     1    1
    41    13     8    1
    42    39    35   ar
    43    19    15   ar
    44    13     5    1
    45    27    21   ar
    46     2    14    1
    47    19    20    1
@<TRIPOS>MOLECULE
*****
 41 47 0 0 0
SMALL
GASTEIGER

@<TRIPOS>ATOM
      1 C         141.3750  140.2970  159.8170 C.3     1  UNL1        0.1707
      2 N         141.8812  139.0432  159.1676 N.3     1  UNL1       -0.2797
      3 C         142.4694  139.0976  157.7888 C.3     1  UNL1        0.1167
      4 C         142.5513  140.4058  157.0594 C.3     1  UNL1        0.0511
      5 C         142.0452  141.6596  157.7088 C.2     1  UNL1       -0.0037
      6 C         141.4570  141.6052  159.0877 C.2     1  UNL1        0.0800
      7 N         141.0424  142.9951  159.4698 N.2     1  UNL1       -0.2519
      8 C         141.3742  143.9086  158.3272 C.2     1  UNL1        0.0627
      9 C         141.1922  145.3853  158.1373 C.3     1  UNL1        0.0717
     10 C         141.6299  146.0365  156.8589 C.2     1  UNL1       -0.0198
     11 C         142.2496  145.2111  155.7705 C.2     1  UNL1       -0.0042
     12 C         142.4317  143.7344  155.9605 C.2     1  UNL1        0.0006
     13 C         141.9940  143.0831  157.2389 C.2     1  UNL1        0.0111
     14 H         141.0950  138.3946  159.1270 H       1  UNL1        0.1246
     15 C         142.9756  137.8438  157.1393 C.ar    1  UNL1        0.1319
     16 N         142.6209  136.4410  157.5347 N.ar    1  UNL1       -0.2282
     17 C         143.3514  135.5029  156.6202 C.ar    1  UNL1        0.1171
     18 C         144.1575  136.3259  155.6596 C.ar    1  UNL1        0.0942
     19 N         143.9252  137.7727  155.9804 N.ar    1  UNL1       -0.3385
     20 H         144.3257  138.5407  155.5124 H       1  UNL1        0.1672
     21 C         143.2871  134.0047  156.6594 C.ar    1  UNL1        0.1006
     22 C         142.1881  133.2821  155.9382 C.ar    1  UNL1        0.0230
     23 C         142.1238  131.7840  155.9774 C.ar    1  UNL1        0.0328
     24 C         143.1583  131.0086  156.7379 C.ar    1  UNL1        0.1592
     25 F         143.0940  129.5104  156.7772 F       1  UNL1       -0.2025
     26 C         144.2572  131.7312  157.4591 C.ar    1  UNL1        0.1284
     27 N         144.3216  133.2293  157.4199 N.ar    1  UNL1       -0.2399
     28 N         141.2218  138.0273  162.9619 N.ar    1  UNL1       -0.2497
     29 C         141.8661  139.1257  162.1690 C.ar    1  UNL1        0.0944
     30 C         141.0819  139.3046  160.9029 C.ar    1  UNL1        0.0439
     31 C         139.9531  138.3168  160.9133 C.ar    1  UNL1        0.1194
     32 N         140.0396  137.5274  162.1859 N.ar    1  UNL1       -0.1679
     33 C         142.5892  138.3550  165.1467 C.3     1  UNL1        0.0284
     34 C         141.6796  137.5183  164.2966 C.3     1  UNL1        0.1276
     35 C         140.7670  141.2062  160.8436 C.ar    1  UNL1        0.2487
     36 N         141.5182  142.0325  161.8449 N.ar    1  UNL1       -0.1088
     37 N         140.5165  142.7856  162.6692 N.ar    1  UNL1       -0.1009
     38 C         139.1462  142.4247  162.1772 C.ar    1  UNL1        0.2781
     39 O         139.3011  141.4486  161.0488 O.2     1  UNL1       -0.4128
     40 S         137.8489  142.9482  162.7184 S.3     1  UNL1       -0.0544
     41 C         137.8267  144.2192  163.5146 C.3     1  UNL1        0.0789
@<TRIPOS>BOND
     1    33    34    1
     2    34    28    1
     3    28    29   ar
     4    29    30   ar
     5     1    30    1
     6     1    35    1
     7    35    36   ar
     8    36    37   ar
     9    37    38   ar
    10    38    40    1
    11    40    41    1
    12    38    39   ar
    13     1     2    1
    14     2     3    1
    15     3    15    1
    16    15    16   ar
    17    16    17   ar
    18    17    21    1
    19    21    22   ar
    20    22    23   ar
    21    23    24   ar
    22    24    25    1
    23    24    26   ar
    24    26    27   ar
    25    17    18   ar
    26    18    19   ar
    27     3     4    1
    28     4     5    1
    29     5     6    2
    30     6     7    1
    31     7     8    2
    32     8     9    1
    33     9    10    1
    34    10    11    2
    35    11    12    1
    36    12    13    2
    37    30    31   ar
    38    31    32   ar
    39    32    28   ar
    40     6     1    1
    41    13     8    1
    42    39    35   ar
    43    19    15   ar
    44    13     5    1
    45    27    21   ar
    46     2    14    1
    47    19    20    1
