@<TRIPOS>MOLECULE
*****
 41 45 0 0 0
SMALL
GASTEIGER

@<TRIPOS>ATOM
      1 C         138.0542  139.8830  159.8199 C.3     1  UNL1        0.0758
      2 C         139.0863  138.7947  159.8132 C.3     1  UNL1        0.0370
      3 C         139.7859  138.4325  158.5367 C.3     1  UNL1        0.0741
      4 N         139.4533  139.1586  157.2670 N.3     1  UNL1       -0.2688
      5 C         138.4211  140.2470  157.2738 C.3     1  UNL1        0.0741
      6 C         137.7216  140.6092  158.5502 C.3     1  UNL1        0.0370
      7 O         139.4685  141.5302  161.8904 O.2     1  UNL1       -0.2528
      8 C         138.0617  141.0689  162.1316 C.2     1  UNL1        0.3010
      9 N         137.3545  140.2453  161.0964 N.am    1  UNL1       -0.2905
     10 N         137.3620  141.4312  163.4081 N.am    1  UNL1       -0.2848
     11 H         136.4312  139.9426  161.2547 H       1  UNL1        0.1509
     12 H         136.4387  141.1284  163.5664 H       1  UNL1        0.1513
     13 C         138.0692  142.2547  164.4433 C.3     1  UNL1        0.1199
     14 C         138.8728  141.5818  165.5163 C.ar    1  UNL1       -0.0025
     15 C         138.6345  140.1358  165.8365 C.ar    1  UNL1       -0.0026
     16 C         139.4380  139.4630  166.9095 C.ar    1  UNL1       -0.0003
     17 C         140.4799  140.2360  167.6625 C.ar    1  UNL1       -0.0000
     18 C         140.7182  141.6819  167.3424 C.ar    1  UNL1       -0.0003
     19 C         139.9146  142.3548  166.2693 C.ar    1  UNL1       -0.0026
     20 C         137.9728  143.7511  164.4054 C.3     1  UNL1        0.1515
     21 N         138.8965  144.5402  163.5257 N.ar    1  UNL1       -0.2474
     22 C         140.3588  144.7723  163.7660 C.ar    1  UNL1        0.0968
     23 C         140.8862  145.6113  162.6400 C.ar    1  UNL1        0.0427
     24 C         139.7498  145.8976  161.7036 C.ar    1  UNL1        0.1217
     25 N         138.5201  145.2357  162.2510 N.ar    1  UNL1       -0.1676
     26 C         140.1529  138.7963  155.9906 C.3     1  UNL1        0.1007
     27 C         141.3671  137.9163  156.0245 C.ar    1  UNL1        0.0129
     28 C         142.7931  138.3815  156.0393 C.ar    1  UNL1        0.0176
     29 C         143.6758  137.1692  156.0735 C.ar    1  UNL1        0.0799
     30 N         142.7954  135.9547  156.0798 N.ar    1  UNL1       -0.3038
     31 C         141.3686  136.4165  156.0495 C.ar    1  UNL1        0.0772
     32 C         143.2603  134.5289  156.1110 C.ar    1  UNL1        0.0640
     33 C         143.0689  133.6513  154.9098 C.ar    1  UNL1        0.0175
     34 C         143.5337  132.2255  154.9409 C.ar    1  UNL1        0.0053
     35 C         144.1900  131.6773  156.1733 C.ar    1  UNL1        0.0715
     36 C         144.3814  132.5550  157.3746 C.ar    1  UNL1        0.0053
     37 C         143.9165  133.9808  157.3434 C.ar    1  UNL1        0.0175
     38 C         144.6548  130.2515  156.2044 C.3     1  UNL1        0.4186
     39 F         145.1197  128.8257  156.2357 F       1  UNL1       -0.1659
     40 F         144.7727  130.2573  154.7091 F       1  UNL1       -0.1659
     41 F         144.5369  130.2457  157.6998 F       1  UNL1       -0.1659
@<TRIPOS>BOND
     1     7     8    2
     2     8     9   am
     3     9     1    1
     4     1     2    1
     5     2     3    1
     6     3     4    1
     7     4    26    1
     8    26    27    1
     9    27    28   ar
    10    28    29   ar
    11    29    30   ar
    12    30    32    1
    13    32    33   ar
    14    33    34   ar
    15    34    35   ar
    16    35    38    1
    17    38    39    1
    18    38    40    1
    19    38    41    1
    20    35    36   ar
    21    36    37   ar
    22    30    31   ar
    23     4     5    1
    24     5     6    1
    25     8    10   am
    26    10    13    1
    27    13    20    1
    28    20    21    1
    29    21    22   ar
    30    22    23   ar
    31    23    24   ar
    32    24    25   ar
    33    13    14    1
    34    14    15   ar
    35    15    16   ar
    36    16    17   ar
    37    17    18   ar
    38    18    19   ar
    39     6     1    1
    40    25    21   ar
    41    19    14   ar
    42    31    27   ar
    43    37    32   ar
    44     9    11    1
    45    10    12    1
@<TRIPOS>MOLECULE
*****
 41 45 0 0 0
SMALL
GASTEIGER

@<TRIPOS>ATOM
      1 C         140.4322  138.6522  161.5521 C.3     1  UNL1        0.0758
      2 C         141.7721  137.9791  161.5896 C.3     1  UNL1        0.0370
      3 C         142.5303  137.7461  160.3165 C.3     1  UNL1        0.0741
      4 N         141.9486  138.1863  159.0059 N.3     1  UNL1       -0.2688
      5 C         140.6086  138.8594  158.9683 C.3     1  UNL1        0.0741
      6 C         139.8504  139.0924  160.2414 C.3     1  UNL1        0.0370
      7 O         141.5181  140.5327  163.6221 O.2     1  UNL1       -0.2528
      8 C         140.2169  139.8255  163.8602 C.2     1  UNL1        0.3010
      9 N         139.6739  138.8853  162.8252 N.am    1  UNL1       -0.2905
     10 N         139.4586  140.0585  165.1333 N.am    1  UNL1       -0.2848
     11 H         138.8199  138.4211  162.9815 H       1  UNL1        0.1509
     12 H         138.6046  139.5943  165.2896 H       1  UNL1        0.1513
     13 C         140.0016  140.9987  166.1683 C.3     1  UNL1        0.1199
     14 C         140.6145  140.4571  167.4256 C.ar    1  UNL1       -0.0025
     15 C         142.0184  139.9290  167.4086 C.ar    1  UNL1       -0.0026
     16 C         142.6313  139.3875  168.6659 C.ar    1  UNL1       -0.0003
     17 C         141.8403  139.3740  169.9404 C.ar    1  UNL1       -0.0000
     18 C         140.4365  139.9020  169.9575 C.ar    1  UNL1       -0.0003
     19 C         139.8235  140.4436  168.7001 C.ar    1  UNL1       -0.0026
     20 C         139.9316  142.4805  165.9458 C.3     1  UNL1        0.1515
     21 N         139.2434  143.0246  164.7292 N.ar    1  UNL1       -0.2474
     22 C         139.7886  144.0692  163.8010 C.ar    1  UNL1        0.0968
     23 C         138.7713  144.3099  162.7253 C.ar    1  UNL1        0.0427
     24 C         137.5974  143.4140  162.9886 C.ar    1  UNL1        0.1217
     25 N         137.8892  142.6196  164.2271 N.ar    1  UNL1       -0.1676
     26 C         142.7068  137.9532  157.7327 C.3     1  UNL1        0.1007
     27 C         142.4650  136.7074  156.9331 C.ar    1  UNL1        0.0129
     28 C         141.2666  136.4292  156.0750 C.ar    1  UNL1        0.0176
     29 C         141.4401  135.0710  155.4627 C.ar    1  UNL1        0.0799
     30 N         142.7459  134.5096  155.9424 N.ar    1  UNL1       -0.3038
     31 C         143.3793  135.5210  156.8511 C.ar    1  UNL1        0.0772
     32 C         143.3177  133.1718  155.5774 C.ar    1  UNL1        0.0640
     33 C         144.3538  132.5344  156.4548 C.ar    1  UNL1        0.0175
     34 C         144.9257  131.1966  156.0898 C.ar    1  UNL1        0.0053
     35 C         144.4614  130.4963  154.8473 C.ar    1  UNL1        0.0715
     36 C         143.4253  131.1337  153.9698 C.ar    1  UNL1        0.0053
     37 C         142.8534  132.4715  154.3348 C.ar    1  UNL1        0.0175
     38 C         145.0333  129.1585  154.4823 C.3     1  UNL1        0.4186
     39 F         145.6052  127.8206  154.1174 F       1  UNL1       -0.1659
     40 F         144.9494  129.5192  153.0288 F       1  UNL1       -0.1659
     41 F         145.1172  128.7977  155.9359 F       1  UNL1       -0.1659
@<TRIPOS>BOND
     1     7     8    2
     2     8     9   am
     3     9     1    1
     4     1     2    1
     5     2     3    1
     6     3     4    1
     7     4    26    1
     8    26    27    1
     9    27    28   ar
    10    28    29   ar
    11    29    30   ar
    12    30    32    1
    13    32    33   ar
    14    33    34   ar
    15    34    35   ar
    16    35    38    1
    17    38    39    1
    18    38    40    1
    19    38    41    1
    20    35    36   ar
    21    36    37   ar
    22    30    31   ar
    23     4     5    1
    24     5     6    1
    25     8    10   am
    26    10    13    1
    27    13    20    1
    28    20    21    1
    29    21    22   ar
    30    22    23   ar
    31    23    24   ar
    32    24    25   ar
    33    13    14    1
    34    14    15   ar
    35    15    16   ar
    36    16    17   ar
    37    17    18   ar
    38    18    19   ar
    39     6     1    1
    40    25    21   ar
    41    19    14   ar
    42    31    27   ar
    43    37    32   ar
    44     9    11    1
    45    10    12    1
@<TRIPOS>MOLECULE
*****
 41 45 0 0 0
SMALL
GASTEIGER

@<TRIPOS>ATOM
      1 C         143.4060  139.0924  161.2828 C.3     1  UNL1        0.0758
      2 C         142.9300  137.7598  160.7853 C.3     1  UNL1        0.0370
      3 C         142.8225  137.5044  159.3111 C.3     1  UNL1        0.0741
      4 N         143.1910  138.5816  158.3345 N.3     1  UNL1       -0.2688
      5 C         143.6670  139.9142  158.8319 C.3     1  UNL1        0.0741
      6 C         143.7745  140.1696  160.3061 C.3     1  UNL1        0.0370
      7 O         141.2295  140.5851  162.7092 O.2     1  UNL1       -0.2528
      8 C         142.4253  140.0942  163.4702 C.2     1  UNL1        0.3010
      9 N         143.5135  139.3479  162.7570 N.am    1  UNL1       -0.2905
     10 N         142.5328  140.3497  164.9444 N.am    1  UNL1       -0.2848
     11 H         144.2984  139.0257  163.2564 H       1  UNL1        0.1509
     12 H         143.3177  140.0275  165.4438 H       1  UNL1        0.1513
     13 C         141.4446  141.0960  165.6576 C.3     1  UNL1        0.1199
     14 C         140.2706  140.3522  166.2218 C.ar    1  UNL1       -0.0025
     15 C         139.9679  140.4304  167.6889 C.ar    1  UNL1       -0.0026
     16 C         138.7939  139.6866  168.2532 C.ar    1  UNL1       -0.0003
     17 C         137.9226  138.8645  167.3504 C.ar    1  UNL1       -0.0000
     18 C         138.2252  138.7862  165.8834 C.ar    1  UNL1       -0.0003
     19 C         139.3993  139.5301  165.3191 C.ar    1  UNL1       -0.0026
     20 C         141.5303  142.5861  165.8065 C.3     1  UNL1        0.1515
     21 N         142.2455  143.4033  164.7718 N.ar    1  UNL1       -0.2474
     22 C         141.6316  144.4648  163.9078 C.ar    1  UNL1        0.0968
     23 C         142.7068  145.0201  163.0214 C.ar    1  UNL1        0.0427
     24 C         143.9852  144.3018  163.3376 C.ar    1  UNL1        0.1217
     25 N         143.7000  143.3026  164.4194 N.ar    1  UNL1       -0.1676
     26 C         143.0835  138.3261  156.8602 C.3     1  UNL1        0.1007
     27 C         142.7163  136.9603  156.3606 C.ar    1  UNL1        0.0129
     28 C         141.3596  136.5299  155.8872 C.ar    1  UNL1        0.0176
     29 C         141.4462  135.0887  155.4806 C.ar    1  UNL1        0.0799
     30 N         142.8564  134.6283  155.7028 N.ar    1  UNL1       -0.3038
     31 C         143.6414  135.7850  156.2466 C.ar    1  UNL1        0.0772
     32 C         143.3882  133.2527  155.4291 C.ar    1  UNL1        0.0640
     33 C         142.9044  132.4855  154.2345 C.ar    1  UNL1        0.0175
     34 C         143.4363  131.1099  153.9608 C.ar    1  UNL1        0.0053
     35 C         144.4519  130.5015  154.8818 C.ar    1  UNL1        0.0715
     36 C         144.9358  131.2687  156.0765 C.ar    1  UNL1        0.0053
     37 C         144.4039  132.6443  156.3501 C.ar    1  UNL1        0.0175
     38 C         144.9837  129.1260  154.6081 C.3     1  UNL1        0.4186
     39 F         145.5156  127.7503  154.3345 F       1  UNL1       -0.1659
     40 F         145.1593  129.4816  153.1615 F       1  UNL1       -0.1659
     41 F         144.8082  128.7702  156.0548 F       1  UNL1       -0.1659
@<TRIPOS>BOND
     1     7     8    2
     2     8     9   am
     3     9     1    1
     4     1     2    1
     5     2     3    1
     6     3     4    1
     7     4    26    1
     8    26    27    1
     9    27    28   ar
    10    28    29   ar
    11    29    30   ar
    12    30    32    1
    13    32    33   ar
    14    33    34   ar
    15    34    35   ar
    16    35    38    1
    17    38    39    1
    18    38    40    1
    19    38    41    1
    20    35    36   ar
    21    36    37   ar
    22    30    31   ar
    23     4     5    1
    24     5     6    1
    25     8    10   am
    26    10    13    1
    27    13    20    1
    28    20    21    1
    29    21    22   ar
    30    22    23   ar
    31    23    24   ar
    32    24    25   ar
    33    13    14    1
    34    14    15   ar
    35    15    16   ar
    36    16    17   ar
    37    17    18   ar
    38    18    19   ar
    39     6     1    1
    40    25    21   ar
    41    19    14   ar
    42    31    27   ar
    43    37    32   ar
    44     9    11    1
    45    10    12    1
@<TRIPOS>MOLECULE
*****
 41 45 0 0 0
SMALL
GASTEIGER

@<TRIPOS>ATOM
      1 C         141.0028  145.0407  158.0124 C.3     1  UNL1        0.0758
      2 C         140.9870  143.6357  157.4876 C.3     1  UNL1        0.0370
      3 C         140.1326  143.2864  156.3052 C.3     1  UNL1        0.0741
      4 N         139.2942  144.3421  155.6477 N.3     1  UNL1       -0.2688
      5 C         139.3101  145.7472  156.1725 C.3     1  UNL1        0.0741
      6 C         140.1644  146.0965  157.3549 C.3     1  UNL1        0.0370
      7 O         140.7337  143.4917  160.5675 O.2     1  UNL1       -0.2528
      8 C         141.7226  144.6156  160.4724 C.2     1  UNL1        0.3010
      9 N         141.8572  145.3901  159.1949 N.am    1  UNL1       -0.2905
     10 N         142.5770  144.9650  161.6548 N.am    1  UNL1       -0.2848
     11 H         142.5062  146.1277  159.1325 H       1  UNL1        0.1509
     12 H         143.2260  145.7026  161.5924 H       1  UNL1        0.1513
     13 C         142.4424  144.1905  162.9323 C.3     1  UNL1        0.1199
     14 C         143.2610  142.9523  163.1484 C.ar    1  UNL1       -0.0025
     15 C         144.7558  143.0462  163.2305 C.ar    1  UNL1       -0.0026
     16 C         145.5743  141.8080  163.4466 C.ar    1  UNL1       -0.0003
     17 C         144.8981  140.4758  163.5806 C.ar    1  UNL1       -0.0000
     18 C         143.4034  140.3818  163.4985 C.ar    1  UNL1       -0.0003
     19 C         142.5847  141.6201  163.2824 C.ar    1  UNL1       -0.0026
     20 C         141.4893  144.6542  163.9937 C.3     1  UNL1        0.1515
     21 N         140.0347  144.2996  163.9024 N.ar    1  UNL1       -0.2474
     22 C         139.3262  143.2649  164.7254 C.ar    1  UNL1        0.0968
     23 C         137.8869  143.2432  164.3038 C.ar    1  UNL1        0.0427
     24 C         137.7058  144.2645  163.2201 C.ar    1  UNL1        0.1217
     25 N         139.0333  144.9174  162.9721 N.ar    1  UNL1       -0.1676
     26 C         138.4398  143.9927  154.4652 C.3     1  UNL1        0.1007
     27 C         137.4956  142.8297  154.5397 C.ar    1  UNL1        0.0129
     28 C         137.6555  141.5174  153.8309 C.ar    1  UNL1        0.0176
     29 C         136.4844  140.6514  154.1891 C.ar    1  UNL1        0.0799
     30 N         135.6006  141.4284  155.1194 N.ar    1  UNL1       -0.3038
     31 C         136.2256  142.7746  155.3360 C.ar    1  UNL1        0.0772
     32 C         134.3172  140.9441  155.7264 C.ar    1  UNL1        0.0640
     33 C         134.3470  139.9556  156.8541 C.ar    1  UNL1        0.0175
     34 C         133.0637  139.4713  157.4611 C.ar    1  UNL1        0.0053
     35 C         131.7505  139.9756  156.9403 C.ar    1  UNL1        0.0715
     36 C         131.7207  140.9641  155.8126 C.ar    1  UNL1        0.0053
     37 C         133.0040  141.4484  155.2056 C.ar    1  UNL1        0.0175
     38 C         130.4672  139.4913  157.5473 C.3     1  UNL1        0.4186
     39 F         129.1838  139.0070  158.1544 F       1  UNL1       -0.1659
     40 F         129.7007  140.4689  156.7066 F       1  UNL1       -0.1659
     41 F         131.2337  138.5137  158.3881 F       1  UNL1       -0.1659
@<TRIPOS>BOND
     1     7     8    2
     2     8     9   am
     3     9     1    1
     4     1     2    1
     5     2     3    1
     6     3     4    1
     7     4    26    1
     8    26    27    1
     9    27    28   ar
    10    28    29   ar
    11    29    30   ar
    12    30    32    1
    13    32    33   ar
    14    33    34   ar
    15    34    35   ar
    16    35    38    1
    17    38    39    1
    18    38    40    1
    19    38    41    1
    20    35    36   ar
    21    36    37   ar
    22    30    31   ar
    23     4     5    1
    24     5     6    1
    25     8    10   am
    26    10    13    1
    27    13    20    1
    28    20    21    1
    29    21    22   ar
    30    22    23   ar
    31    23    24   ar
    32    24    25   ar
    33    13    14    1
    34    14    15   ar
    35    15    16   ar
    36    16    17   ar
    37    17    18   ar
    38    18    19   ar
    39     6     1    1
    40    25    21   ar
    41    19    14   ar
    42    31    27   ar
    43    37    32   ar
    44     9    11    1
    45    10    12    1
@<TRIPOS>MOLECULE
*****
 41 45 0 0 0
SMALL
GASTEIGER

@<TRIPOS>ATOM
      1 C         142.1304  143.3119  157.7509 C.3     1  UNL1        0.0758
      2 C         140.8453  142.9104  157.0897 C.3     1  UNL1        0.0370
      3 C         140.8381  141.8096  156.0708 C.3     1  UNL1        0.0741
      4 N         142.1160  141.1104  155.7131 N.3     1  UNL1       -0.2688
      5 C         143.4011  141.5119  156.3743 C.3     1  UNL1        0.0741
      6 C         143.4083  142.6126  157.3932 C.3     1  UNL1        0.0370
      7 O         141.9283  142.6543  160.6710 O.2     1  UNL1       -0.2528
      8 C         142.0365  144.0839  160.2299 C.2     1  UNL1        0.3010
      9 N         142.1376  144.4127  158.7699 N.am    1  UNL1       -0.2905
     10 N         142.0437  145.1847  161.2489 N.am    1  UNL1       -0.2848
     11 H         142.2086  145.3510  158.4804 H       1  UNL1        0.1509
     12 H         142.1148  146.1230  160.9594 H       1  UNL1        0.1513
     13 C         141.9427  144.8559  162.7089 C.3     1  UNL1        0.1199
     14 C         140.6039  144.5721  163.3228 C.ar    1  UNL1       -0.0025
     15 C         139.3510  144.8089  162.5326 C.ar    1  UNL1       -0.0026
     16 C         138.0122  144.5251  163.1465 C.ar    1  UNL1       -0.0003
     17 C         137.9261  144.0045  164.5506 C.ar    1  UNL1       -0.0000
     18 C         139.1789  143.7677  165.3408 C.ar    1  UNL1       -0.0003
     19 C         140.5178  144.0515  164.7269 C.ar    1  UNL1       -0.0026
     20 C         143.1805  144.8109  163.5549 C.3     1  UNL1        0.1515
     21 N         144.0366  143.5793  163.5666 N.ar    1  UNL1       -0.2474
     22 C         144.2663  142.6763  164.7420 C.ar    1  UNL1        0.0968
     23 C         145.1851  141.5734  164.3067 C.ar    1  UNL1        0.0427
     24 C         145.5232  141.7947  162.8621 C.ar    1  UNL1        0.1217
     25 N         144.8135  143.0345  162.4047 N.ar    1  UNL1       -0.1676
     26 C         142.1088  140.0095  154.6941 C.3     1  UNL1        0.1007
     27 C         141.6845  138.6258  155.0879 C.ar    1  UNL1        0.0129
     28 C         140.2711  138.1436  155.2288 C.ar    1  UNL1        0.0176
     29 C         140.3121  136.7011  155.6380 C.ar    1  UNL1        0.0799
     30 N         141.7509  136.2917  155.7499 N.ar    1  UNL1       -0.3038
     31 C         142.5990  137.4812  155.4099 C.ar    1  UNL1        0.0772
     32 C         142.2532  134.9316  156.1342 C.ar    1  UNL1        0.0640
     33 C         141.6695  133.7077  155.4930 C.ar    1  UNL1        0.0175
     34 C         142.1718  132.3476  155.8774 C.ar    1  UNL1        0.0053
     35 C         143.2579  132.2114  156.9030 C.ar    1  UNL1        0.0715
     36 C         143.8416  133.4353  157.5442 C.ar    1  UNL1        0.0053
     37 C         143.3393  134.7954  157.1599 C.ar    1  UNL1        0.0175
     38 C         143.7602  130.8513  157.2873 C.3     1  UNL1        0.4186
     39 F         144.2626  129.4912  157.6718 F       1  UNL1       -0.1659
     40 F         142.6863  130.2188  156.4527 F       1  UNL1       -0.1659
     41 F         144.8341  131.4838  158.1221 F       1  UNL1       -0.1659
@<TRIPOS>BOND
     1     7     8    2
     2     8     9   am
     3     9     1    1
     4     1     2    1
     5     2     3    1
     6     3     4    1
     7     4    26    1
     8    26    27    1
     9    27    28   ar
    10    28    29   ar
    11    29    30   ar
    12    30    32    1
    13    32    33   ar
    14    33    34   ar
    15    34    35   ar
    16    35    38    1
    17    38    39    1
    18    38    40    1
    19    38    41    1
    20    35    36   ar
    21    36    37   ar
    22    30    31   ar
    23     4     5    1
    24     5     6    1
    25     8    10   am
    26    10    13    1
    27    13    20    1
    28    20    21    1
    29    21    22   ar
    30    22    23   ar
    31    23    24   ar
    32    24    25   ar
    33    13    14    1
    34    14    15   ar
    35    15    16   ar
    36    16    17   ar
    37    17    18   ar
    38    18    19   ar
    39     6     1    1
    40    25    21   ar
    41    19    14   ar
    42    31    27   ar
    43    37    32   ar
    44     9    11    1
    45    10    12    1
@<TRIPOS>MOLECULE
*****
 41 45 0 0 0
SMALL
GASTEIGER

@<TRIPOS>ATOM
      1 C         138.6561  142.5547  158.0464 C.3     1  UNL1        0.0758
      2 C         140.0186  142.3268  157.4619 C.3     1  UNL1        0.0370
      3 C         141.1792  142.0216  158.3617 C.3     1  UNL1        0.0741
      4 N         140.9773  141.9442  159.8460 N.3     1  UNL1       -0.2688
      5 C         139.6148  142.1721  160.4305 C.3     1  UNL1        0.0741
      6 C         138.4542  142.4773  159.5307 C.3     1  UNL1        0.0370
      7 O         137.0831  140.3163  156.8153 O.2     1  UNL1       -0.2528
      8 C         136.7089  141.7408  156.5310 C.2     1  UNL1        0.3010
      9 N         137.4954  142.8600  157.1465 N.am    1  UNL1       -0.2905
     10 N         135.5482  142.0461  155.6312 N.am    1  UNL1       -0.2848
     11 H         137.2498  143.7949  156.9599 H       1  UNL1        0.1509
     12 H         135.3026  142.9810  155.4446 H       1  UNL1        0.1513
     13 C         134.7617  140.9269  155.0157 C.3     1  UNL1        0.1199
     14 C         133.4875  140.4642  155.6576 C.ar    1  UNL1       -0.0025
     15 C         133.4718  139.2036  156.4705 C.ar    1  UNL1       -0.0026
     16 C         132.1975  138.7409  157.1124 C.ar    1  UNL1       -0.0003
     17 C         130.9389  139.5388  156.9415 C.ar    1  UNL1       -0.0000
     18 C         130.9545  140.7993  156.1287 C.ar    1  UNL1       -0.0003
     19 C         132.2288  141.2621  155.4867 C.ar    1  UNL1       -0.0026
     20 C         135.2496  140.2704  153.7583 C.3     1  UNL1        0.1515
     21 N         136.4215  139.3354  153.8064 N.ar    1  UNL1       -0.2474
     22 C         137.7696  139.5794  153.1958 C.ar    1  UNL1        0.0968
     23 C         138.6324  138.3870  153.4856 C.ar    1  UNL1        0.0427
     24 C         137.8174  137.4061  154.2754 C.ar    1  UNL1        0.1217
     25 N         136.4510  137.9923  154.4736 N.ar    1  UNL1       -0.1676
     26 C         142.1380  141.6389  160.7459 C.3     1  UNL1        0.1007
     27 C         141.9477  140.7528  161.9410 C.ar    1  UNL1        0.0129
     28 C         142.0216  139.2547  161.9486 C.ar    1  UNL1        0.0176
     29 C         141.7696  138.7851  163.3507 C.ar    1  UNL1        0.0799
     30 N         141.5398  139.9932  164.2098 N.ar    1  UNL1       -0.3038
     31 C         141.6499  141.2092  163.3386 C.ar    1  UNL1        0.0772
     32 C         141.2508  139.9863  165.6817 C.ar    1  UNL1        0.0640
     33 C         139.8329  140.0416  166.1678 C.ar    1  UNL1        0.0175
     34 C         139.5439  140.0347  167.6397 C.ar    1  UNL1        0.0053
     35 C         140.6727  139.9725  168.6254 C.ar    1  UNL1        0.0715
     36 C         142.0907  139.9172  168.1393 C.ar    1  UNL1        0.0053
     37 C         142.3797  139.9241  166.6674 C.ar    1  UNL1        0.0175
     38 C         140.3837  139.9656  170.0972 C.3     1  UNL1        0.4186
     39 F         140.0946  139.9588  171.5691 F       1  UNL1       -0.1659
     40 F         141.5298  139.0234  170.3179 F       1  UNL1       -0.1659
     41 F         139.2375  140.9079  169.8766 F       1  UNL1       -0.1659
@<TRIPOS>BOND
     1     7     8    2
     2     8     9   am
     3     9     1    1
     4     1     2    1
     5     2     3    1
     6     3     4    1
     7     4    26    1
     8    26    27    1
     9    27    28   ar
    10    28    29   ar
    11    29    30   ar
    12    30    32    1
    13    32    33   ar
    14    33    34   ar
    15    34    35   ar
    16    35    38    1
    17    38    39    1
    18    38    40    1
    19    38    41    1
    20    35    36   ar
    21    36    37   ar
    22    30    31   ar
    23     4     5    1
    24     5     6    1
    25     8    10   am
    26    10    13    1
    27    13    20    1
    28    20    21    1
    29    21    22   ar
    30    22    23   ar
    31    23    24   ar
    32    24    25   ar
    33    13    14    1
    34    14    15   ar
    35    15    16   ar
    36    16    17   ar
    37    17    18   ar
    38    18    19   ar
    39     6     1    1
    40    25    21   ar
    41    19    14   ar
    42    31    27   ar
    43    37    32   ar
    44     9    11    1
    45    10    12    1
@<TRIPOS>MOLECULE
*****
 41 45 0 0 0
SMALL
GASTEIGER

@<TRIPOS>ATOM
      1 C         141.0175  138.1694  161.1679 C.3     1  UNL1        0.0758
      2 C         142.4549  137.7762  160.9969 C.3     1  UNL1        0.0370
      3 C         143.0661  137.7452  159.6275 C.3     1  UNL1        0.0741
      4 N         142.2400  138.1074  158.4290 N.3     1  UNL1       -0.2688
      5 C         140.8026  138.5006  158.6000 C.3     1  UNL1        0.0741
      6 C         140.1914  138.5316  159.9694 C.3     1  UNL1        0.0370
      7 O         141.3866  140.5755  162.9213 O.2     1  UNL1       -0.2528
      8 C         140.5907  139.4034  163.4140 C.2     1  UNL1        0.3010
      9 N         140.4061  138.2004  162.5374 N.am    1  UNL1       -0.2905
     10 N         139.9794  139.4344  164.7835 N.am    1  UNL1       -0.2848
     11 H         139.8838  137.4311  162.8608 H       1  UNL1        0.1509
     12 H         139.4570  138.6651  165.1069 H       1  UNL1        0.1513
     13 C         140.1640  140.6374  165.6602 C.3     1  UNL1        0.1199
     14 C         139.4147  141.9028  165.3647 C.ar    1  UNL1       -0.0025
     15 C         139.9573  143.2217  165.8297 C.ar    1  UNL1       -0.0026
     16 C         139.2080  144.4871  165.5342 C.ar    1  UNL1       -0.0003
     17 C         137.9162  144.4336  164.7737 C.ar    1  UNL1       -0.0000
     18 C         137.3736  143.1148  164.3087 C.ar    1  UNL1       -0.0003
     19 C         138.1229  141.8493  164.6042 C.ar    1  UNL1       -0.0026
     20 C         141.0978  140.5750  166.8324 C.3     1  UNL1        0.1515
     21 N         140.5540  140.6390  168.2288 N.ar    1  UNL1       -0.2474
     22 C         141.1256  141.4387  169.3618 C.ar    1  UNL1        0.0968
     23 C         140.2679  141.2084  170.5707 C.ar    1  UNL1        0.0427
     24 C         139.1662  140.2664  170.1848 C.ar    1  UNL1        0.1217
     25 N         139.3430  139.9144  168.7375 N.ar    1  UNL1       -0.1676
     26 C         142.8513  138.0764  157.0596 C.3     1  UNL1        0.1007
     27 C         142.8898  136.7929  156.2843 C.ar    1  UNL1        0.0129
     28 C         142.6911  136.6506  154.8043 C.ar    1  UNL1        0.0176
     29 C         142.8122  135.1961  154.4582 C.ar    1  UNL1        0.0799
     30 N         143.0858  134.4395  155.7242 N.ar    1  UNL1       -0.3038
     31 C         143.1337  135.4264  156.8528 C.ar    1  UNL1        0.0772
     32 C         143.2777  132.9565  155.8411 C.ar    1  UNL1        0.0640
     33 C         144.6342  132.3981  156.1538 C.ar    1  UNL1        0.0175
     34 C         144.8261  130.9150  156.2707 C.ar    1  UNL1        0.0053
     35 C         143.6615  129.9903  156.0749 C.ar    1  UNL1        0.0715
     36 C         142.3048  130.5487  155.7622 C.ar    1  UNL1        0.0053
     37 C         142.1129  132.0317  155.6453 C.ar    1  UNL1        0.0175
     38 C         143.8534  128.5073  156.1918 C.3     1  UNL1        0.4186
     39 F         144.0454  127.0242  156.3087 F       1  UNL1       -0.1659
     40 F         142.4812  128.3764  156.7833 F       1  UNL1       -0.1659
     41 F         145.2257  128.6382  155.6003 F       1  UNL1       -0.1659
@<TRIPOS>BOND
     1     7     8    2
     2     8     9   am
     3     9     1    1
     4     1     2    1
     5     2     3    1
     6     3     4    1
     7     4    26    1
     8    26    27    1
     9    27    28   ar
    10    28    29   ar
    11    29    30   ar
    12    30    32    1
    13    32    33   ar
    14    33    34   ar
    15    34    35   ar
    16    35    38    1
    17    38    39    1
    18    38    40    1
    19    38    41    1
    20    35    36   ar
    21    36    37   ar
    22    30    31   ar
    23     4     5    1
    24     5     6    1
    25     8    10   am
    26    10    13    1
    27    13    20    1
    28    20    21    1
    29    21    22   ar
    30    22    23   ar
    31    23    24   ar
    32    24    25   ar
    33    13    14    1
    34    14    15   ar
    35    15    16   ar
    36    16    17   ar
    37    17    18   ar
    38    18    19   ar
    39     6     1    1
    40    25    21   ar
    41    19    14   ar
    42    31    27   ar
    43    37    32   ar
    44     9    11    1
    45    10    12    1
@<TRIPOS>MOLECULE
*****
 41 45 0 0 0
SMALL
GASTEIGER

@<TRIPOS>ATOM
      1 C         143.0685  139.5307  161.1025 C.3     1  UNL1        0.0758
      2 C         142.6816  138.1114  160.8097 C.3     1  UNL1        0.0370
      3 C         142.6684  137.6143  159.3945 C.3     1  UNL1        0.0741
      4 N         143.0422  138.5365  158.2722 N.3     1  UNL1       -0.2688
      5 C         143.4291  139.9559  158.5649 C.3     1  UNL1        0.0741
      6 C         143.4423  140.4529  159.9801 C.3     1  UNL1        0.0370
      7 O         140.4884  139.8888  162.5907 O.2     1  UNL1       -0.2528
      8 C         141.7917  140.2069  163.2617 C.2     1  UNL1        0.3010
      9 N         143.0817  140.0278  162.5177 N.am    1  UNL1       -0.2905
     10 N         141.8049  140.7040  164.6770 N.am    1  UNL1       -0.2848
     11 H         143.9371  140.2366  162.9581 H       1  UNL1        0.1509
     12 H         142.6602  140.9128  165.1174 H       1  UNL1        0.1513
     13 C         140.5148  140.8831  165.4210 C.3     1  UNL1        0.1199
     14 C         139.6297  142.0551  165.1162 C.ar    1  UNL1       -0.0025
     15 C         138.3382  141.8486  164.3817 C.ar    1  UNL1       -0.0026
     16 C         137.4531  143.0206  164.0769 C.ar    1  UNL1       -0.0003
     17 C         137.8594  144.3991  164.5066 C.ar    1  UNL1       -0.0000
     18 C         139.1508  144.6056  165.2410 C.ar    1  UNL1       -0.0003
     19 C         140.0360  143.4336  165.5459 C.ar    1  UNL1       -0.0026
     20 C         140.1099  139.8902  166.4699 C.3     1  UNL1        0.1515
     21 N         140.8537  139.8283  167.7710 N.ar    1  UNL1       -0.2474
     22 C         140.2533  139.9761  169.1376 C.ar    1  UNL1        0.0968
     23 C         141.3569  139.8469  170.1452 C.ar    1  UNL1        0.0427
     24 C         142.6395  139.6192  169.4013 C.ar    1  UNL1        0.1217
     25 N         142.3284  139.6077  167.9340 N.ar    1  UNL1       -0.1676
     26 C         143.0290  138.0394  156.8569 C.3     1  UNL1        0.1007
     27 C         142.7622  136.5909  156.5733 C.ar    1  UNL1        0.0129
     28 C         141.6763  136.0507  155.6907 C.ar    1  UNL1        0.0176
     29 C         141.7775  134.5541  155.6944 C.ar    1  UNL1        0.0799
     30 N         142.9260  134.1693  156.5793 N.ar    1  UNL1       -0.3038
     31 C         143.5345  135.4281  157.1225 C.ar    1  UNL1        0.0772
     32 C         143.3852  132.7712  156.8700 C.ar    1  UNL1        0.0640
     33 C         142.6178  131.6019  156.3282 C.ar    1  UNL1        0.0175
     34 C         143.0770  130.2038  156.6188 C.ar    1  UNL1        0.0053
     35 C         144.3036  129.9751  157.4513 C.ar    1  UNL1        0.0715
     36 C         145.0711  131.1445  157.9931 C.ar    1  UNL1        0.0053
     37 C         144.6119  132.5425  157.7024 C.ar    1  UNL1        0.0175
     38 C         144.7628  128.5770  157.7419 C.3     1  UNL1        0.4186
     39 F         145.2221  127.1790  158.0326 F       1  UNL1       -0.1659
     40 F         144.1849  128.1159  156.4368 F       1  UNL1       -0.1659
     41 F         145.3408  129.0382  159.0471 F       1  UNL1       -0.1659
@<TRIPOS>BOND
     1     7     8    2
     2     8     9   am
     3     9     1    1
     4     1     2    1
     5     2     3    1
     6     3     4    1
     7     4    26    1
     8    26    27    1
     9    27    28   ar
    10    28    29   ar
    11    29    30   ar
    12    30    32    1
    13    32    33   ar
    14    33    34   ar
    15    34    35   ar
    16    35    38    1
    17    38    39    1
    18    38    40    1
    19    38    41    1
    20    35    36   ar
    21    36    37   ar
    22    30    31   ar
    23     4     5    1
    24     5     6    1
    25     8    10   am
    26    10    13    1
    27    13    20    1
    28    20    21    1
    29    21    22   ar
    30    22    23   ar
    31    23    24   ar
    32    24    25   ar
    33    13    14    1
    34    14    15   ar
    35    15    16   ar
    36    16    17   ar
    37    17    18   ar
    38    18    19   ar
    39     6     1    1
    40    25    21   ar
    41    19    14   ar
    42    31    27   ar
    43    37    32   ar
    44     9    11    1
    45    10    12    1
@<TRIPOS>MOLECULE
*****
 41 45 0 0 0
SMALL
GASTEIGER

@<TRIPOS>ATOM
      1 C         143.4240  139.5088  160.9963 C.3     1  UNL1        0.0758
      2 C         142.8998  138.1530  160.6264 C.3     1  UNL1        0.0370
      3 C         142.7801  137.7633  159.1829 C.3     1  UNL1        0.0741
      4 N         143.1848  138.7295  158.1092 N.3     1  UNL1       -0.2688
      5 C         143.7090  140.0854  158.4791 C.3     1  UNL1        0.0741
      6 C         143.8287  140.4750  159.9226 C.3     1  UNL1        0.0370
      7 O         141.1251  140.8456  162.3847 O.2     1  UNL1       -0.2528
      8 C         142.3942  140.5669  163.1340 C.2     1  UNL1        0.3010
      9 N         143.5437  139.8985  162.4399 N.am    1  UNL1       -0.2905
     10 N         142.5139  140.9566  164.5776 N.am    1  UNL1       -0.2848
     11 H         144.3767  139.7156  162.9317 H       1  UNL1        0.1509
     12 H         143.3469  140.7737  165.0695 H       1  UNL1        0.1513
     13 C         141.3644  141.6250  165.2718 C.3     1  UNL1        0.1199
     14 C         140.3157  140.7968  165.9532 C.ar    1  UNL1       -0.0025
     15 C         139.2863  140.0714  165.1382 C.ar    1  UNL1       -0.0026
     16 C         138.2376  139.2432  165.8196 C.ar    1  UNL1       -0.0003
     17 C         138.2183  139.1404  167.3159 C.ar    1  UNL1       -0.0000
     18 C         139.2476  139.8657  168.1309 C.ar    1  UNL1       -0.0003
     19 C         140.2964  140.6940  167.4495 C.ar    1  UNL1       -0.0026
     20 C         141.2637  143.1215  165.2846 C.3     1  UNL1        0.1515
     21 N         140.4491  143.8273  164.2415 N.ar    1  UNL1       -0.2474
     22 C         139.0579  143.4640  163.8143 C.ar    1  UNL1        0.0968
     23 C         138.6316  144.4325  162.7511 C.ar    1  UNL1        0.0427
     24 C         139.7595  145.3944  162.5212 C.ar    1  UNL1        0.1217
     25 N         140.8827  145.0204  163.4423 N.ar    1  UNL1       -0.1676
     26 C         143.0651  138.3398  156.6656 C.3     1  UNL1        0.1007
     27 C         142.6414  136.9490  156.2969 C.ar    1  UNL1        0.0129
     28 C         141.3371  136.5632  155.6646 C.ar    1  UNL1        0.0176
     29 C         141.3371  135.0755  155.4726 C.ar    1  UNL1        0.0799
     30 N         142.6416  134.5419  155.9863 N.ar    1  UNL1       -0.3038
     31 C         143.4476  135.6998  156.4957 C.ar    1  UNL1        0.0772
     32 C         143.0655  133.1030  155.9899 C.ar    1  UNL1        0.0640
     33 C         144.5013  132.7448  156.2346 C.ar    1  UNL1        0.0175
     34 C         144.9252  131.3059  156.2382 C.ar    1  UNL1        0.0053
     35 C         143.9133  130.2254  155.9970 C.ar    1  UNL1        0.0715
     36 C         142.4774  130.5836  155.7523 C.ar    1  UNL1        0.0053
     37 C         142.0535  132.0224  155.7487 C.ar    1  UNL1        0.0175
     38 C         144.3371  128.7865  156.0006 C.3     1  UNL1        0.4186
     39 F         144.7611  127.3477  156.0042 F       1  UNL1       -0.1659
     40 F         143.2811  128.4780  157.0202 F       1  UNL1       -0.1659
     41 F         145.3933  129.0951  154.9810 F       1  UNL1       -0.1659
@<TRIPOS>BOND
     1     7     8    2
     2     8     9   am
     3     9     1    1
     4     1     2    1
     5     2     3    1
     6     3     4    1
     7     4    26    1
     8    26    27    1
     9    27    28   ar
    10    28    29   ar
    11    29    30   ar
    12    30    32    1
    13    32    33   ar
    14    33    34   ar
    15    34    35   ar
    16    35    38    1
    17    38    39    1
    18    38    40    1
    19    38    41    1
    20    35    36   ar
    21    36    37   ar
    22    30    31   ar
    23     4     5    1
    24     5     6    1
    25     8    10   am
    26    10    13    1
    27    13    20    1
    28    20    21    1
    29    21    22   ar
    30    22    23   ar
    31    23    24   ar
    32    24    25   ar
    33    13    14    1
    34    14    15   ar
    35    15    16   ar
    36    16    17   ar
    37    17    18   ar
    38    18    19   ar
    39     6     1    1
    40    25    21   ar
    41    19    14   ar
    42    31    27   ar
    43    37    32   ar
    44     9    11    1
    45    10    12    1
