@<TRIPOS>MOLECULE
*****
 29 32 0 0 0
SMALL
GASTEIGER

@<TRIPOS>ATOM
      1 N         139.8558  139.3364  163.5608 N.3     1  UNL1       -0.2664
      2 C         139.0363  139.0286  164.7788 C.3     1  UNL1        0.0742
      3 C         139.6436  139.1594  166.1441 C.3     1  UNL1        0.0376
      4 C         141.0706  139.5980  166.2914 C.3     1  UNL1        0.0841
      5 C         141.8900  139.9058  165.0733 C.3     1  UNL1        0.0376
      6 C         141.2827  139.7750  163.7080 C.3     1  UNL1        0.0742
      7 N         141.6779  139.7288  167.6567 N.am    1  UNL1       -0.2423
      8 C         142.9006  139.0135  168.1499 C.2     1  UNL1        0.3309
      9 O         143.7307  138.0418  167.3645 O.2     1  UNL1       -0.2501
     10 N         143.1475  139.4405  169.5665 N.am    1  UNL1       -0.1647
     11 C         142.0774  140.4197  169.9487 C.2     1  UNL1        0.0706
     12 C         141.8127  141.1720  171.2191 C.3     1  UNL1        0.0705
     13 C         140.6397  142.1026  171.3090 C.2     1  UNL1       -0.0199
     14 C         139.7314  142.2808  170.1287 C.2     1  UNL1       -0.0029
     15 C         139.9961  141.5284  168.8583 C.2     1  UNL1        0.0156
     16 C         141.1691  140.5978  168.7684 C.2     1  UNL1        0.0668
     17 C         139.2485  139.2056  162.1955 C.3     1  UNL1        0.1350
     18 C         138.1106  138.2550  161.9687 C.3     1  UNL1        0.0272
     19 C         137.8604  144.3235  163.2583 C.3     1  UNL1        0.0189
     20 C         138.6053  143.6590  162.1387 C.3     1  UNL1        0.0741
     21 C         138.8197  142.1745  162.1576 C.3     1  UNL1        0.1091
     22 N         139.5647  141.5100  161.0380 N.am    1  UNL1       -0.2757
     23 C         139.7791  140.0255  161.0570 C.2     1  UNL1        0.2402
     24 O         140.5241  139.3610  159.9374 O.2     1  UNL1       -0.2734
     25 C         140.0953  142.3300  159.8996 C.3     1  UNL1        0.1091
     26 C         139.8809  143.8145  159.8807 C.3     1  UNL1        0.0741
     27 C         140.4115  144.6344  158.7423 C.3     1  UNL1        0.0189
     28 N         139.1359  144.4790  161.0003 N.3     1  UNL1       -0.2969
     29 H         138.3360  144.9532  160.5811 H       1  UNL1        0.1233
@<TRIPOS>BOND
     1    20    19    1
     2    20    21    1
     3    21    22    1
     4    22    23   am
     5    23    24    2
     6    23    17    1
     7    17    18    1
     8    17     1    1
     9     1     2    1
    10     2     3    1
    11     3     4    1
    12     4     7    1
    13     7     8   am
    14     8     9    2
    15     8    10    1
    16    10    11    2
    17    11    12    1
    18    12    13    1
    19    13    14    2
    20    14    15    1
    21    15    16    2
    22     4     5    1
    23     5     6    1
    24    22    25    1
    25    25    26    1
    26    26    27    1
    27    26    28    1
    28    28    20    1
    29     6     1    1
    30    16     7    1
    31    16    11    1
    32    28    29    1
@<TRIPOS>MOLECULE
*****
 29 32 0 0 0
SMALL
GASTEIGER

@<TRIPOS>ATOM
      1 N         140.5053  139.8888  163.1174 N.3     1  UNL1       -0.2664
      2 C         141.5230  139.3012  164.0496 C.3     1  UNL1        0.0742
      3 C         141.3448  139.4316  165.5332 C.3     1  UNL1        0.0376
      4 C         140.1488  140.1497  166.0847 C.3     1  UNL1        0.0841
      5 C         139.1312  140.7373  165.1526 C.3     1  UNL1        0.0376
      6 C         139.3094  140.6069  163.6689 C.3     1  UNL1        0.0742
      7 N         139.9706  140.2802  167.5684 N.am    1  UNL1       -0.2423
      8 C         138.8828  139.6476  168.3847 C.2     1  UNL1        0.3309
      9 O         137.7821  138.7735  167.8608 O.2     1  UNL1       -0.2501
     10 N         139.0889  140.0426  169.8170 N.am    1  UNL1       -0.1647
     11 C         140.3041  140.9193  169.8859 C.2     1  UNL1        0.0706
     12 C         140.9847  141.6028  171.0345 C.3     1  UNL1        0.0705
     13 C         142.2104  142.4332  170.7934 C.2     1  UNL1       -0.0199
     14 C         142.7554  142.5800  169.4036 C.2     1  UNL1       -0.0029
     15 C         142.0747  141.8965  168.2550 C.2     1  UNL1        0.0156
     16 C         140.8490  141.0661  168.4962 C.2     1  UNL1        0.0668
     17 C         140.6835  139.7584  161.6337 C.3     1  UNL1        0.1350
     18 C         141.3880  138.5623  161.0652 C.3     1  UNL1        0.0272
     19 C         143.7826  144.1123  162.4632 C.3     1  UNL1        0.0189
     20 C         142.6131  143.8231  161.5695 C.3     1  UNL1        0.0741
     21 C         141.9698  142.4682  161.5909 C.3     1  UNL1        0.1091
     22 N         140.8004  142.1790  160.6972 N.am    1  UNL1       -0.2757
     23 C         140.1572  140.8240  160.7187 C.2     1  UNL1        0.2402
     24 O         138.9877  140.5348  159.8250 O.2     1  UNL1       -0.2734
     25 C         140.2741  143.2447  159.7822 C.3     1  UNL1        0.1091
     26 C         140.9173  144.5996  159.7608 C.3     1  UNL1        0.0741
     27 C         140.3910  145.6652  158.8457 C.3     1  UNL1        0.0189
     28 N         142.0868  144.8888  160.6545 N.3     1  UNL1       -0.2969
     29 H         141.8192  145.6771  161.2438 H       1  UNL1        0.1233
@<TRIPOS>BOND
     1    20    19    1
     2    20    21    1
     3    21    22    1
     4    22    23   am
     5    23    24    2
     6    23    17    1
     7    17    18    1
     8    17     1    1
     9     1     2    1
    10     2     3    1
    11     3     4    1
    12     4     7    1
    13     7     8   am
    14     8     9    2
    15     8    10    1
    16    10    11    2
    17    11    12    1
    18    12    13    1
    19    13    14    2
    20    14    15    1
    21    15    16    2
    22     4     5    1
    23     5     6    1
    24    22    25    1
    25    25    26    1
    26    26    27    1
    27    26    28    1
    28    28    20    1
    29     6     1    1
    30    16     7    1
    31    16    11    1
    32    28    29    1
@<TRIPOS>MOLECULE
*****
 29 32 0 0 0
SMALL
GASTEIGER

@<TRIPOS>ATOM
      1 N         141.4859  137.8676  157.7469 N.3     1  UNL1       -0.2664
      2 C         140.0252  138.1374  157.9554 C.3     1  UNL1        0.0742
      3 C         139.5198  138.5201  159.3149 C.3     1  UNL1        0.0376
      4 C         140.4752  138.6329  160.4659 C.3     1  UNL1        0.0841
      5 C         141.9358  138.3630  160.2573 C.3     1  UNL1        0.0376
      6 C         142.4412  137.9804  158.8978 C.3     1  UNL1        0.0742
      7 N         139.9698  139.0155  161.8253 N.am    1  UNL1       -0.2423
      8 C         140.1450  138.2226  163.0865 C.2     1  UNL1        0.3309
      9 O         140.8564  136.9078  163.2096 O.2     1  UNL1       -0.2501
     10 N         139.4839  138.9753  164.2029 N.am    1  UNL1       -0.1647
     11 C         138.9001  140.2335  163.6317 C.2     1  UNL1        0.0706
     12 C         138.1339  141.3597  164.2598 C.3     1  UNL1        0.0705
     13 C         137.6680  142.5108  163.4184 C.2     1  UNL1       -0.0199
     14 C         137.9683  142.5357  161.9490 C.2     1  UNL1       -0.0029
     15 C         138.7345  141.4094  161.3209 C.2     1  UNL1        0.0156
     16 C         139.2004  140.2584  162.1623 C.2     1  UNL1        0.0668
     17 C         141.9913  137.4849  156.3874 C.3     1  UNL1        0.1350
     18 C         143.1120  138.2587  155.7587 C.3     1  UNL1        0.0272
     19 C         144.6535  133.0777  158.0420 C.3     1  UNL1        0.0189
     20 C         143.5265  133.3121  157.0803 C.3     1  UNL1        0.0741
     21 C         143.0148  134.7030  156.8493 C.3     1  UNL1        0.1091
     22 N         141.8877  134.9375  155.8877 N.am    1  UNL1       -0.2757
     23 C         141.3760  136.3285  155.6567 C.2     1  UNL1        0.2402
     24 O         140.2490  136.5629  154.6951 O.2     1  UNL1       -0.2734
     25 C         141.2724  133.7810  155.1570 C.3     1  UNL1        0.1091
     26 C         141.7842  132.3900  155.3880 C.3     1  UNL1        0.0741
     27 C         141.1689  131.2336  154.6573 C.3     1  UNL1        0.0189
     28 N         142.9112  132.1556  156.3497 N.3     1  UNL1       -0.2969
     29 H         143.6607  131.7086  155.8216 H       1  UNL1        0.1233
@<TRIPOS>BOND
     1    20    19    1
     2    20    21    1
     3    21    22    1
     4    22    23   am
     5    23    24    2
     6    23    17    1
     7    17    18    1
     8    17     1    1
     9     1     2    1
    10     2     3    1
    11     3     4    1
    12     4     7    1
    13     7     8   am
    14     8     9    2
    15     8    10    1
    16    10    11    2
    17    11    12    1
    18    12    13    1
    19    13    14    2
    20    14    15    1
    21    15    16    2
    22     4     5    1
    23     5     6    1
    24    22    25    1
    25    25    26    1
    26    26    27    1
    27    26    28    1
    28    28    20    1
    29     6     1    1
    30    16     7    1
    31    16    11    1
    32    28    29    1
@<TRIPOS>MOLECULE
*****
 29 32 0 0 0
SMALL
GASTEIGER

@<TRIPOS>ATOM
      1 N         141.6534  137.6743  157.6115 N.3     1  UNL1       -0.2664
      2 C         140.2117  138.0844  157.5539 C.3     1  UNL1        0.0742
      3 C         139.5808  138.7744  158.7270 C.3     1  UNL1        0.0376
      4 C         140.3917  139.0542  159.9576 C.3     1  UNL1        0.0841
      5 C         141.8334  138.6441  160.0150 C.3     1  UNL1        0.0376
      6 C         142.4642  137.9541  158.8420 C.3     1  UNL1        0.0742
      7 N         139.7609  139.7442  161.1306 N.am    1  UNL1       -0.2423
      8 C         139.3192  141.1769  161.1778 C.2     1  UNL1        0.3309
      9 O         139.4308  142.1712  160.0602 O.2     1  UNL1       -0.2501
     10 N         138.7463  141.4407  162.5387 N.am    1  UNL1       -0.1647
     11 C         138.8339  140.1711  163.3326 C.2     1  UNL1        0.0706
     12 C         138.4237  139.8342  164.7356 C.3     1  UNL1        0.0705
     13 C         138.6406  138.4489  165.2682 C.2     1  UNL1       -0.0199
     14 C         139.2677  137.4004  164.3979 C.2     1  UNL1       -0.0029
     15 C         139.6778  137.7372  162.9950 C.2     1  UNL1        0.0156
     16 C         139.4610  139.1225  162.4624 C.2     1  UNL1        0.0668
     17 C         142.2843  136.9843  156.4384 C.3     1  UNL1        0.1350
     18 C         143.5842  137.4862  155.8833 C.3     1  UNL1        0.0272
     19 C         145.0887  132.6655  158.0914 C.3     1  UNL1        0.0189
     20 C         143.8858  132.8513  157.2148 C.3     1  UNL1        0.0741
     21 C         143.3519  134.2290  156.9560 C.3     1  UNL1        0.1091
     22 N         142.1489  134.4147  156.0794 N.am    1  UNL1       -0.2757
     23 C         141.6151  135.7925  155.8207 C.2     1  UNL1        0.2402
     24 O         140.4122  135.9782  154.9441 O.2     1  UNL1       -0.2734
     25 C         141.4798  133.2228  155.4617 C.3     1  UNL1        0.1091
     26 C         142.0137  131.8451  155.7205 C.3     1  UNL1        0.0741
     27 C         141.3446  130.6533  155.1027 C.3     1  UNL1        0.0189
     28 N         143.2167  131.6593  156.5971 N.3     1  UNL1       -0.2969
     29 H         143.9219  131.1854  156.0327 H       1  UNL1        0.1233
@<TRIPOS>BOND
     1    20    19    1
     2    20    21    1
     3    21    22    1
     4    22    23   am
     5    23    24    2
     6    23    17    1
     7    17    18    1
     8    17     1    1
     9     1     2    1
    10     2     3    1
    11     3     4    1
    12     4     7    1
    13     7     8   am
    14     8     9    2
    15     8    10    1
    16    10    11    2
    17    11    12    1
    18    12    13    1
    19    13    14    2
    20    14    15    1
    21    15    16    2
    22     4     5    1
    23     5     6    1
    24    22    25    1
    25    25    26    1
    26    26    27    1
    27    26    28    1
    28    28    20    1
    29     6     1    1
    30    16     7    1
    31    16    11    1
    32    28    29    1
@<TRIPOS>MOLECULE
*****
 29 32 0 0 0
SMALL
GASTEIGER

@<TRIPOS>ATOM
      1 N         139.6842  139.0280  163.9376 N.3     1  UNL1       -0.2664
      2 C         140.9276  138.6863  164.7039 C.3     1  UNL1        0.0742
      3 C         141.0810  139.1400  166.1254 C.3     1  UNL1        0.0376
      4 C         139.9909  139.9354  166.7806 C.3     1  UNL1        0.0841
      5 C         138.7476  140.2770  166.0143 C.3     1  UNL1        0.0376
      6 C         138.5942  139.8233  164.5928 C.3     1  UNL1        0.0742
      7 N         140.1443  140.3891  168.2021 N.am    1  UNL1       -0.2423
      8 C         139.1834  140.1201  169.3220 C.2     1  UNL1        0.3309
      9 O         137.9003  139.3502  169.2171 O.2     1  UNL1       -0.2501
     10 N         139.7308  140.7562  170.5653 N.am    1  UNL1       -0.1647
     11 C         141.0300  141.4184  170.2138 C.2     1  UNL1        0.0706
     12 C         142.0133  142.1986  171.0349 C.3     1  UNL1        0.0705
     13 C         143.2522  142.7519  170.3955 C.2     1  UNL1       -0.0199
     14 C         143.5078  142.5250  168.9349 C.2     1  UNL1       -0.0029
     15 C         142.5245  141.7448  168.1138 C.2     1  UNL1        0.0156
     16 C         141.2856  141.1915  168.7532 C.2     1  UNL1        0.0668
     17 C         139.5308  138.5743  162.5161 C.3     1  UNL1        0.1350
     18 C         138.2027  138.0780  162.0264 C.3     1  UNL1        0.0272
     19 C         139.6634  143.5901  160.4980 C.3     1  UNL1        0.0189
     20 C         140.5113  142.3681  160.3037 C.3     1  UNL1        0.0741
     21 C         140.1845  141.1035  161.0412 C.3     1  UNL1        0.1091
     22 N         141.0325  139.8815  160.8469 N.am    1  UNL1       -0.2757
     23 C         140.7056  138.6169  161.5844 C.2     1  UNL1        0.2402
     24 O         141.5535  137.3949  161.3902 O.2     1  UNL1       -0.2734
     25 C         142.2072  139.9242  159.9152 C.3     1  UNL1        0.1091
     26 C         142.5340  141.1888  159.1778 C.3     1  UNL1        0.0741
     27 C         143.7088  141.2314  158.2461 C.3     1  UNL1        0.0189
     28 N         141.6861  142.4108  159.3720 N.3     1  UNL1       -0.2969
     29 H         141.3242  142.6672  158.4535 H       1  UNL1        0.1233
@<TRIPOS>BOND
     1    20    19    1
     2    20    21    1
     3    21    22    1
     4    22    23   am
     5    23    24    2
     6    23    17    1
     7    17    18    1
     8    17     1    1
     9     1     2    1
    10     2     3    1
    11     3     4    1
    12     4     7    1
    13     7     8   am
    14     8     9    2
    15     8    10    1
    16    10    11    2
    17    11    12    1
    18    12    13    1
    19    13    14    2
    20    14    15    1
    21    15    16    2
    22     4     5    1
    23     5     6    1
    24    22    25    1
    25    25    26    1
    26    26    27    1
    27    26    28    1
    28    28    20    1
    29     6     1    1
    30    16     7    1
    31    16    11    1
    32    28    29    1
@<TRIPOS>MOLECULE
*****
 29 32 0 0 0
SMALL
GASTEIGER

@<TRIPOS>ATOM
      1 N         140.7875  142.4903  162.3508 N.3     1  UNL1       -0.2664
      2 C         141.8395  141.8260  163.1887 C.3     1  UNL1        0.0742
      3 C         141.4846  141.2693  164.5356 C.3     1  UNL1        0.0376
      4 C         140.0777  141.3770  165.0447 C.3     1  UNL1        0.0841
      5 C         139.0258  142.0414  164.2068 C.3     1  UNL1        0.0376
      6 C         139.3807  142.5980  162.8599 C.3     1  UNL1        0.0742
      7 N         139.7228  140.8204  166.3916 N.am    1  UNL1       -0.2423
      8 C         138.9689  139.5495  166.6496 C.2     1  UNL1        0.3309
      9 O         138.4376  138.6122  165.6061 O.2     1  UNL1       -0.2501
     10 N         138.8398  139.3806  168.1345 N.am    1  UNL1       -0.1647
     11 C         139.5138  140.5470  168.7941 C.2     1  UNL1        0.0706
     12 C         139.7011  140.9138  170.2365 C.3     1  UNL1        0.0705
     13 C         140.4341  142.1705  170.6016 C.2     1  UNL1       -0.0199
     14 C         140.9799  143.0603  169.5244 C.2     1  UNL1       -0.0029
     15 C         140.7926  142.6935  168.0821 C.2     1  UNL1        0.0156
     16 C         140.0596  141.4369  167.7170 C.2     1  UNL1        0.0668
     17 C         141.1424  143.0470  161.0039 C.3     1  UNL1        0.1350
     18 C         142.5795  143.2830  160.6448 C.3     1  UNL1        0.0272
     19 C         139.8199  138.3590  158.6539 C.3     1  UNL1        0.0189
     20 C         139.3388  139.7714  158.5005 C.3     1  UNL1        0.0741
     21 C         139.9400  140.8633  159.3350 C.3     1  UNL1        0.1091
     22 N         139.4588  142.2758  159.1816 N.am    1  UNL1       -0.2757
     23 C         140.0601  143.3676  160.0161 C.2     1  UNL1        0.2402
     24 O         139.5790  144.7801  159.8628 O.2     1  UNL1       -0.2734
     25 C         138.3765  142.5963  158.1938 C.3     1  UNL1        0.1091
     26 C         137.7753  141.5044  157.3593 C.3     1  UNL1        0.0741
     27 C         136.6930  141.8250  156.3716 C.3     1  UNL1        0.0189
     28 N         138.2564  140.0919  157.5127 N.3     1  UNL1       -0.2969
     29 H         138.5957  139.7954  156.5976 H       1  UNL1        0.1233
@<TRIPOS>BOND
     1    20    19    1
     2    20    21    1
     3    21    22    1
     4    22    23   am
     5    23    24    2
     6    23    17    1
     7    17    18    1
     8    17     1    1
     9     1     2    1
    10     2     3    1
    11     3     4    1
    12     4     7    1
    13     7     8   am
    14     8     9    2
    15     8    10    1
    16    10    11    2
    17    11    12    1
    18    12    13    1
    19    13    14    2
    20    14    15    1
    21    15    16    2
    22     4     5    1
    23     5     6    1
    24    22    25    1
    25    25    26    1
    26    26    27    1
    27    26    28    1
    28    28    20    1
    29     6     1    1
    30    16     7    1
    31    16    11    1
    32    28    29    1
@<TRIPOS>MOLECULE
*****
 29 32 0 0 0
SMALL
GASTEIGER

@<TRIPOS>ATOM
      1 N         138.8166  140.6689  162.8602 N.3     1  UNL1       -0.2664
      2 C         138.8246  141.9082  163.7051 C.3     1  UNL1        0.0742
      3 C         139.1964  141.8245  165.1559 C.3     1  UNL1        0.0376
      4 C         139.5601  140.5013  165.7618 C.3     1  UNL1        0.0841
      5 C         139.5521  139.2620  164.9169 C.3     1  UNL1        0.0376
      6 C         139.1803  139.3458  163.4661 C.3     1  UNL1        0.0742
      7 N         139.9319  140.4175  167.2126 N.am    1  UNL1       -0.2423
      8 C         139.1637  139.6951  168.2793 C.2     1  UNL1        0.3309
      9 O         137.8889  138.9295  168.0826 O.2     1  UNL1       -0.2501
     10 N         139.8942  139.8726  169.5773 N.am    1  UNL1       -0.1647
     11 C         141.1139  140.7048  169.3128 C.2     1  UNL1        0.0706
     12 C         142.2062  141.1994  170.2140 C.3     1  UNL1        0.0705
     13 C         143.3219  142.0308  169.6536 C.2     1  UNL1       -0.0199
     14 C         143.3452  142.3676  168.1921 C.2     1  UNL1       -0.0029
     15 C         142.2528  141.8730  167.2909 C.2     1  UNL1        0.0156
     16 C         141.1372  141.0416  167.8513 C.2     1  UNL1        0.0668
     17 C         138.4448  140.7526  161.4094 C.3     1  UNL1        0.1350
     18 C         137.5622  139.7043  160.7996 C.3     1  UNL1        0.0272
     19 C         143.4489  139.3615  159.9016 C.3     1  UNL1        0.0189
     20 C         142.5811  140.5584  159.6478 C.3     1  UNL1        0.0741
     21 C         141.2023  140.6232  160.2350 C.3     1  UNL1        0.1091
     22 N         140.3345  141.8201  159.9813 N.am    1  UNL1       -0.2757
     23 C         138.9557  141.8848  160.5685 C.2     1  UNL1        0.2402
     24 O         138.0879  143.0817  160.3148 O.2     1  UNL1       -0.2734
     25 C         140.8455  142.9522  159.1403 C.3     1  UNL1        0.1091
     26 C         142.2243  142.8874  158.5532 C.3     1  UNL1        0.0741
     27 C         142.7352  144.0196  157.7122 C.3     1  UNL1        0.0189
     28 N         143.0921  141.6905  158.8069 N.3     1  UNL1       -0.2969
     29 H         143.9408  142.0324  159.2577 H       1  UNL1        0.1233
@<TRIPOS>BOND
     1    20    19    1
     2    20    21    1
     3    21    22    1
     4    22    23   am
     5    23    24    2
     6    23    17    1
     7    17    18    1
     8    17     1    1
     9     1     2    1
    10     2     3    1
    11     3     4    1
    12     4     7    1
    13     7     8   am
    14     8     9    2
    15     8    10    1
    16    10    11    2
    17    11    12    1
    18    12    13    1
    19    13    14    2
    20    14    15    1
    21    15    16    2
    22     4     5    1
    23     5     6    1
    24    22    25    1
    25    25    26    1
    26    26    27    1
    27    26    28    1
    28    28    20    1
    29     6     1    1
    30    16     7    1
    31    16    11    1
    32    28    29    1
@<TRIPOS>MOLECULE
*****
 29 32 0 0 0
SMALL
GASTEIGER

@<TRIPOS>ATOM
      1 N         141.1816  142.1614  162.7786 N.3     1  UNL1       -0.2664
      2 C         140.3415  141.0712  163.3749 C.3     1  UNL1        0.0742
      3 C         140.6769  140.5219  164.7298 C.3     1  UNL1        0.0376
      4 C         141.8525  141.0629  165.4885 C.3     1  UNL1        0.0841
      5 C         142.6925  142.1532  164.8921 C.3     1  UNL1        0.0376
      6 C         142.3571  142.7024  163.5372 C.3     1  UNL1        0.0742
      7 N         142.1879  140.5137  166.8434 N.am    1  UNL1       -0.2423
      8 C         142.8301  139.1872  167.1228 C.2     1  UNL1        0.3309
      9 O         143.2496  138.1771  166.0963 O.2     1  UNL1       -0.2501
     10 N         142.9790  139.0482  168.6088 N.am    1  UNL1       -0.1647
     11 C         142.4289  140.2888  169.2479 C.2     1  UNL1        0.0706
     12 C         142.3100  140.7107  170.6824 C.3     1  UNL1        0.0705
     13 C         141.7022  142.0383  171.0258 C.2     1  UNL1       -0.0199
     14 C         141.2132  142.9440  169.9346 C.2     1  UNL1       -0.0029
     15 C         141.3321  142.5221  168.5002 C.2     1  UNL1        0.0156
     16 C         141.9399  141.1945  168.1568 C.2     1  UNL1        0.0668
     17 C         140.8462  142.7107  161.4236 C.3     1  UNL1        0.1350
     18 C         139.4145  142.8066  160.9866 C.3     1  UNL1        0.0272
     19 C         142.8117  138.2350  159.1098 C.3     1  UNL1        0.0189
     20 C         143.1426  139.6939  158.9999 C.3     1  UNL1        0.0741
     21 C         142.3771  140.6995  159.8078 C.3     1  UNL1        0.1091
     22 N         142.7080  142.1584  159.6978 N.am    1  UNL1       -0.2757
     23 C         141.9425  143.1640  160.5058 C.2     1  UNL1        0.2402
     24 O         142.2734  144.6229  160.3959 O.2     1  UNL1       -0.2734
     25 C         143.8044  142.6117  158.7800 C.3     1  UNL1        0.1091
     26 C         144.5699  141.6060  157.9721 C.3     1  UNL1        0.0741
     27 C         145.6662  142.0594  157.0542 C.3     1  UNL1        0.0189
     28 N         144.2390  140.1471  158.0820 N.3     1  UNL1       -0.2969
     29 H         145.0905  139.6740  158.3843 H       1  UNL1        0.1233
@<TRIPOS>BOND
     1    20    19    1
     2    20    21    1
     3    21    22    1
     4    22    23   am
     5    23    24    2
     6    23    17    1
     7    17    18    1
     8    17     1    1
     9     1     2    1
    10     2     3    1
    11     3     4    1
    12     4     7    1
    13     7     8   am
    14     8     9    2
    15     8    10    1
    16    10    11    2
    17    11    12    1
    18    12    13    1
    19    13    14    2
    20    14    15    1
    21    15    16    2
    22     4     5    1
    23     5     6    1
    24    22    25    1
    25    25    26    1
    26    26    27    1
    27    26    28    1
    28    28    20    1
    29     6     1    1
    30    16     7    1
    31    16    11    1
    32    28    29    1
@<TRIPOS>MOLECULE
*****
 29 32 0 0 0
SMALL
GASTEIGER

@<TRIPOS>ATOM
      1 N         140.2424  141.5111  162.8376 N.3     1  UNL1       -0.2664
      2 C         139.6828  142.5306  163.7850 C.3     1  UNL1        0.0742
      3 C         140.2622  142.6733  165.1612 C.3     1  UNL1        0.0376
      4 C         141.4013  141.7965  165.5900 C.3     1  UNL1        0.0841
      5 C         141.9608  140.7770  164.6427 C.3     1  UNL1        0.0376
      6 C         141.3814  140.6343  163.2665 C.3     1  UNL1        0.0742
      7 N         141.9807  141.9391  166.9662 N.am    1  UNL1       -0.2423
      8 C         143.2835  142.5981  167.3104 C.2     1  UNL1        0.3309
      9 O         144.2357  143.2301  166.3388 O.2     1  UNL1       -0.2501
     10 N         143.4670  142.5141  168.7967 N.am    1  UNL1       -0.1647
     11 C         142.2775  141.8033  169.3712 C.2     1  UNL1        0.0706
     12 C         141.9123  141.4337  170.7783 C.3     1  UNL1        0.0705
     13 C         140.6284  140.7087  171.0540 C.2     1  UNL1       -0.0199
     14 C         139.7098  140.3533  169.9227 C.2     1  UNL1       -0.0029
     15 C         140.0751  140.7229  168.5156 C.2     1  UNL1        0.0156
     16 C         141.3590  141.4479  168.2399 C.2     1  UNL1        0.0668
     17 C         139.6630  141.3684  161.4614 C.3     1  UNL1        0.1350
     18 C         139.2319  140.0201  160.9652 C.3     1  UNL1        0.0272
     19 C         144.5571  142.3003  159.3569 C.3     1  UNL1        0.0189
     20 C         143.2224  142.9716  159.2231 C.3     1  UNL1        0.0741
     21 C         142.0359  142.4372  159.9692 C.3     1  UNL1        0.1091
     22 N         140.7012  143.1085  159.8353 N.am    1  UNL1       -0.2757
     23 C         139.5147  142.5741  160.5815 C.2     1  UNL1        0.2402
     24 O         138.1800  143.2454  160.4476 O.2     1  UNL1       -0.2734
     25 C         140.5530  144.3142  158.9553 C.3     1  UNL1        0.1091
     26 C         141.7395  144.8486  158.2092 C.3     1  UNL1        0.0741
     27 C         141.5912  146.0542  157.3293 C.3     1  UNL1        0.0189
     28 N         143.0742  144.1772  158.3431 N.3     1  UNL1       -0.2969
     29 H         143.7235  144.8805  158.6954 H       1  UNL1        0.1233
@<TRIPOS>BOND
     1    20    19    1
     2    20    21    1
     3    21    22    1
     4    22    23   am
     5    23    24    2
     6    23    17    1
     7    17    18    1
     8    17     1    1
     9     1     2    1
    10     2     3    1
    11     3     4    1
    12     4     7    1
    13     7     8   am
    14     8     9    2
    15     8    10    1
    16    10    11    2
    17    11    12    1
    18    12    13    1
    19    13    14    2
    20    14    15    1
    21    15    16    2
    22     4     5    1
    23     5     6    1
    24    22    25    1
    25    25    26    1
    26    26    27    1
    27    26    28    1
    28    28    20    1
    29     6     1    1
    30    16     7    1
    31    16    11    1
    32    28    29    1
