@<TRIPOS>MOLECULE
*****
 43 46 0 0 0
SMALL
GASTEIGER

@<TRIPOS>ATOM
      1 N         145.7486  135.5626  161.4529 N.pl3   1  UNL1       -0.2532
      2 C         144.8237  136.3854  160.6057 C.2     1  UNL1        0.3612
      3 N         144.4988  135.3176  159.6034 N.am    1  UNL1       -0.0062
      4 C         143.9697  134.5104  158.4551 C.2     1  UNL1        0.3358
      5 O         144.6888  133.2356  158.7839 O.2     1  UNL1       -0.2516
      6 C         143.2674  134.0104  157.2277 C.3     1  UNL1        0.1697
      7 C         143.9556  132.7054  157.4982 C.3     1  UNL1        0.0326
      8 C         143.5461  131.7351  156.4300 C.3     1  UNL1        0.0237
      9 C         142.6048  132.4406  155.4993 C.3     1  UNL1        0.0913
     10 N         142.4325  133.8468  155.9923 N.pl3   1  UNL1       -0.3002
     11 C         140.6425  134.8040  154.0228 C.ar    1  UNL1        0.0484
     12 C         140.3663  136.2332  154.3845 C.ar    1  UNL1        0.0176
     13 C         139.4414  137.0559  153.5373 C.ar    1  UNL1        0.0382
     14 C         138.7928  136.4494  152.3284 C.ar    1  UNL1        0.1391
     15 C         139.0690  135.0201  151.9668 C.ar    1  UNL1        0.0382
     16 C         139.9939  134.1974  152.8139 C.ar    1  UNL1        0.0176
     17 O         138.0738  137.7241  151.9997 O.3     1  UNL1       -0.4707
     18 C         137.5240  139.1194  151.9668 C.3     1  UNL1        0.2315
     19 C         137.1756  140.5541  152.2318 C.2     1  UNL1        0.0161
     20 C         137.0487  141.9448  152.7792 C.2     1  UNL1       -0.0270
     21 C         137.1506  143.2109  153.5772 C.3     1  UNL1        0.0272
     22 C         137.4756  144.2786  154.5795 C.3     1  UNL1        0.0217
     23 C         138.0046  145.0859  155.7277 C.3     1  UNL1        0.0693
     24 N         138.7069  145.5858  156.9552 N.3     1  UNL1       -0.2898
     25 C         139.5418  145.7495  158.1906 C.3     1  UNL1        0.1552
     26 C         140.4606  145.5672  159.3621 C.2     1  UNL1        0.2423
     27 O         140.3337  146.9579  159.9095 O.2     1  UNL1       -0.2733
     28 N         141.4101  145.0497  160.4017 N.am    1  UNL1       -0.2815
     29 C         142.3350  144.2269  161.2489 C.ar    1  UNL1        0.0717
     30 C         143.1815  143.1469  161.8544 C.ar    1  UNL1        0.0717
     31 CL        143.7105  143.9541  163.0027 Cl      1  UNL1       -0.0809
     32 C         143.9005  141.8721  162.1832 C.ar    1  UNL1        0.0116
     33 C         144.4503  140.4769  162.2161 C.ar    1  UNL1        0.0165
     34 C         143.6037  141.5570  161.6104 C.ar    1  UNL1        0.0116
     35 C         142.8847  142.8316  161.2817 C.ar    1  UNL1        0.0717
     36 CL        142.1824  142.3317  160.0542 Cl      1  UNL1       -0.0809
     37 C         144.7987  139.0421  161.9511 C.3     1  UNL1        0.1905
     38 N         144.9256  137.6513  161.4036 N.pl3   1  UNL1       -0.2228
     39 H         145.9299  134.6245  161.2155 H       1  UNL1        0.2410
     40 H         146.1743  135.9607  162.2463 H       1  UNL1        0.2410
     41 H         137.8464  145.8906  157.4102 H       1  UNL1        0.1237
     42 H         141.4770  145.8806  160.9255 H       1  UNL1        0.1549
     43 H         145.5488  137.3117  162.0859 H       1  UNL1        0.2454
@<TRIPOS>BOND
     1     1     2    1
     2     2     3    2
     3     3     4    1
     4     4     5    2
     5     4     6    1
     6     6     7    1
     7     7     8    1
     8     8     9    1
     9     9    10    1
    10    10    11    1
    11    11    12   ar
    12    12    13   ar
    13    13    14   ar
    14    14    15   ar
    15    15    16   ar
    16    14    17    1
    17    17    18    1
    18    18    19    1
    19    19    20    2
    20    20    21    1
    21    21    22    1
    22    22    23    1
    23    23    24    1
    24    24    25    1
    25    25    26    1
    26    26    27    2
    27    26    28   am
    28    28    29    1
    29    29    30   ar
    30    30    31    1
    31    30    32   ar
    32    32    33   ar
    33    33    34   ar
    34    34    35   ar
    35    35    36    1
    36    33    37    1
    37    37    38    1
    38    38     2    1
    39    10     6    1
    40    16    11   ar
    41    35    29   ar
    42     1    39    1
    43     1    40    1
    44    24    41    1
    45    28    42    1
    46    38    43    1
@<TRIPOS>MOLECULE
*****
 43 46 0 0 0
SMALL
GASTEIGER

@<TRIPOS>ATOM
      1 N         137.0950  140.9667  156.6893 N.pl3   1  UNL1       -0.2532
      2 C         138.2550  140.2338  157.2955 C.2     1  UNL1        0.3612
      3 N         138.3961  141.0959  158.5149 N.am    1  UNL1       -0.0062
      4 C         138.8087  141.7312  159.8096 C.2     1  UNL1        0.3358
      5 O         137.7822  142.8249  159.8096 O.2     1  UNL1       -0.2516
      6 C         139.4688  142.1027  161.1043 C.3     1  UNL1        0.1697
      7 C         138.4696  143.2197  161.1673 C.3     1  UNL1        0.0326
      8 C         138.7212  143.9964  162.4257 C.3     1  UNL1        0.0237
      9 C         139.8759  143.3594  163.1404 C.3     1  UNL1        0.0913
     10 N         140.3379  142.1890  162.3238 N.pl3   1  UNL1       -0.3002
     11 C         142.4582  141.2948  163.9681 C.ar    1  UNL1        0.0484
     12 C         143.0370  140.0993  163.2712 C.ar    1  UNL1        0.0176
     13 C         144.1970  139.3666  163.8773 C.ar    1  UNL1        0.0382
     14 C         144.7781  139.8292  165.1805 C.ar    1  UNL1        0.1391
     15 C         144.1993  141.0247  165.8775 C.ar    1  UNL1        0.0382
     16 C         143.0394  141.7574  165.2713 C.ar    1  UNL1        0.0176
     17 O         145.8046  138.7354  165.1806 O.3     1  UNL1       -0.4707
     18 C         146.6720  137.5521  164.8686 C.3     1  UNL1        0.2315
     19 C         147.3299  136.3479  164.2625 C.2     1  UNL1        0.0161
     20 C         147.7400  135.1930  163.3977 C.2     1  UNL1       -0.0270
     21 C         147.8785  134.1543  162.3244 C.3     1  UNL1        0.0272
     22 C         147.7373  133.2922  161.1050 C.3     1  UNL1        0.0217
     23 C         147.3247  132.6570  159.8102 C.3     1  UNL1        0.0693
     24 N         146.6647  132.2854  158.5156 N.3     1  UNL1       -0.2898
     25 C         145.7956  132.1991  157.2961 C.3     1  UNL1        0.1552
     26 C         144.7678  132.4031  156.2227 C.2     1  UNL1        0.2423
     27 O         145.1779  131.2481  155.3579 O.2     1  UNL1       -0.2733
     28 N         143.6412  132.8855  155.3578 N.am    1  UNL1       -0.2815
     29 C         142.4812  133.6183  154.7516 C.ar    1  UNL1        0.0717
     30 C         141.3553  134.5589  154.4394 C.ar    1  UNL1        0.0717
     31 CL        140.9427  133.9237  153.1447 Cl      1  UNL1       -0.0809
     32 C         140.3288  135.6527  154.4393 C.ar    1  UNL1        0.0116
     33 C         139.4614  136.8360  154.7513 C.ar    1  UNL1        0.0165
     34 C         140.5874  135.8954  155.0636 C.ar    1  UNL1        0.0116
     35 C         141.6139  134.8017  155.0637 C.ar    1  UNL1        0.0717
     36 CL        142.2739  135.1733  156.3584 Cl      1  UNL1       -0.0809
     37 C         138.8036  138.0402  155.3574 C.3     1  UNL1        0.1905
     38 N         138.3935  139.1952  156.2222 N.pl3   1  UNL1       -0.2228
     39 H         136.7151  141.7513  157.1468 H       1  UNL1        0.2410
     40 H         136.7136  140.6631  155.8340 H       1  UNL1        0.2410
     41 H         146.4772  131.3253  158.8045 H       1  UNL1        0.1237
     42 H         143.7321  132.2038  154.6533 H       1  UNL1        0.1549
     43 H         137.6541  139.5118  155.6546 H       1  UNL1        0.2454
@<TRIPOS>BOND
     1     1     2    1
     2     2     3    2
     3     3     4    1
     4     4     5    2
     5     4     6    1
     6     6     7    1
     7     7     8    1
     8     8     9    1
     9     9    10    1
    10    10    11    1
    11    11    12   ar
    12    12    13   ar
    13    13    14   ar
    14    14    15   ar
    15    15    16   ar
    16    14    17    1
    17    17    18    1
    18    18    19    1
    19    19    20    2
    20    20    21    1
    21    21    22    1
    22    22    23    1
    23    23    24    1
    24    24    25    1
    25    25    26    1
    26    26    27    2
    27    26    28   am
    28    28    29    1
    29    29    30   ar
    30    30    31    1
    31    30    32   ar
    32    32    33   ar
    33    33    34   ar
    34    34    35   ar
    35    35    36    1
    36    33    37    1
    37    37    38    1
    38    38     2    1
    39    10     6    1
    40    16    11   ar
    41    35    29   ar
    42     1    39    1
    43     1    40    1
    44    24    41    1
    45    28    42    1
    46    38    43    1
@<TRIPOS>MOLECULE
*****
 43 46 0 0 0
SMALL
GASTEIGER

@<TRIPOS>ATOM
      1 N         142.1095  144.6731  151.9671 N.pl3   1  UNL1       -0.2532
      2 C         141.4373  143.8392  153.0174 C.2     1  UNL1        0.3612
      3 N         142.6527  143.6002  153.8636 N.am    1  UNL1       -0.0062
      4 C         143.6353  143.1741  154.9138 C.2     1  UNL1        0.3358
      5 O         144.8372  143.8476  154.3207 O.2     1  UNL1       -0.2516
      6 C         144.3281  142.5856  156.1069 C.3     1  UNL1        0.1697
      7 C         145.5694  143.2336  155.5692 C.3     1  UNL1        0.0326
      8 C         146.6995  142.9175  156.5036 C.3     1  UNL1        0.0237
      9 C         146.1565  142.0741  157.6188 C.3     1  UNL1        0.0913
     10 N         144.6909  141.8690  157.3737 N.pl3   1  UNL1       -0.3002
     11 C         144.0696  140.2804  159.6297 C.ar    1  UNL1        0.0484
     12 C         142.6027  139.9843  159.5271 C.ar    1  UNL1        0.0176
     13 C         141.9307  139.1505  160.5773 C.ar    1  UNL1        0.0382
     14 C         142.7255  138.6128  161.7302 C.ar    1  UNL1        0.1391
     15 C         144.1923  138.9089  161.8329 C.ar    1  UNL1        0.0382
     16 C         144.8644  139.7427  160.7826 C.ar    1  UNL1        0.0176
     17 O         141.5235  137.9393  162.3233 O.3     1  UNL1       -0.4707
     18 C         140.1546  137.4076  162.6288 C.3     1  UNL1        0.2315
     19 C         138.6981  137.0488  162.6288 C.2     1  UNL1        0.0161
     20 C         137.2389  136.8835  162.3235 C.2     1  UNL1       -0.0270
     21 C         135.8616  136.9215  161.7305 C.3     1  UNL1        0.0272
     22 C         134.6462  137.1605  160.8843 C.3     1  UNL1        0.0217
     23 C         133.6636  137.5866  159.8341 C.3     1  UNL1        0.0693
     24 N         132.9708  138.1751  158.6409 N.3     1  UNL1       -0.2898
     25 C         132.6080  138.8917  157.3741 C.3     1  UNL1        0.1552
     26 C         132.5962  139.6949  156.1073 C.2     1  UNL1        0.2423
     27 O         131.1370  139.5296  155.8020 O.2     1  UNL1       -0.2733
     28 N         132.9363  140.5379  154.9141 N.am    1  UNL1       -0.2815
     29 C         133.6084  141.3717  153.8638 C.ar    1  UNL1        0.0717
     30 C         134.5734  142.1479  153.0176 C.ar    1  UNL1        0.0717
     31 CL        133.5908  142.5741  151.9674 Cl      1  UNL1       -0.0809
     32 C         135.7754  142.8214  152.4245 C.ar    1  UNL1        0.0116
     33 C         137.1443  143.3531  152.1191 C.ar    1  UNL1        0.0165
     34 C         136.1793  142.5768  152.9654 C.ar    1  UNL1        0.0116
     35 C         134.9774  141.9034  153.5584 C.ar    1  UNL1        0.0717
     36 CL        135.6703  141.3149  154.7516 Cl      1  UNL1       -0.0809
     37 C         138.6008  143.7119  152.1191 C.3     1  UNL1        0.1905
     38 N         140.0601  143.8772  152.4244 N.pl3   1  UNL1       -0.2228
     39 H         143.0723  144.8674  152.0345 H       1  UNL1        0.2410
     40 H         141.5878  145.0260  151.2104 H       1  UNL1        0.2410
     41 H         132.2638  138.6543  159.1986 H       1  UNL1        0.1237
     42 H         132.0323  140.5628  154.5249 H       1  UNL1        0.1549
     43 H         140.2833  144.4305  151.6413 H       1  UNL1        0.2454
@<TRIPOS>BOND
     1     1     2    1
     2     2     3    2
     3     3     4    1
     4     4     5    2
     5     4     6    1
     6     6     7    1
     7     7     8    1
     8     8     9    1
     9     9    10    1
    10    10    11    1
    11    11    12   ar
    12    12    13   ar
    13    13    14   ar
    14    14    15   ar
    15    15    16   ar
    16    14    17    1
    17    17    18    1
    18    18    19    1
    19    19    20    2
    20    20    21    1
    21    21    22    1
    22    22    23    1
    23    23    24    1
    24    24    25    1
    25    25    26    1
    26    26    27    2
    27    26    28   am
    28    28    29    1
    29    29    30   ar
    30    30    31    1
    31    30    32   ar
    32    32    33   ar
    33    33    34   ar
    34    34    35   ar
    35    35    36    1
    36    33    37    1
    37    37    38    1
    38    38     2    1
    39    10     6    1
    40    16    11   ar
    41    35    29   ar
    42     1    39    1
    43     1    40    1
    44    24    41    1
    45    28    42    1
    46    38    43    1
