@<TRIPOS>MOLECULE
*****
 42 46 0 0 0
SMALL
GASTEIGER

@<TRIPOS>ATOM
      1 C         140.5070  144.1756  161.6948 C.2     1  UNL1        0.2251
      2 O         141.4383  145.1747  162.3150 O.2     1  UNL1       -0.2749
      3 N         140.2295  144.2228  160.2215 N.am    1  UNL1       -0.2795
      4 C         139.2982  143.2238  159.6013 C.3     1  UNL1        0.0940
      5 C         139.0206  143.2710  158.1279 C.3     1  UNL1        0.0297
      6 C         139.6744  144.3173  157.2747 C.3     1  UNL1        0.0425
      7 C         140.6057  145.3164  157.8950 C.3     1  UNL1        0.0297
      8 C         140.8832  145.2691  159.3683 C.3     1  UNL1        0.0940
      9 C         138.5458  141.0367  164.2543 C.3     1  UNL1        0.0542
     10 C         139.6628  140.6583  163.3275 C.3     1  UNL1        0.0162
     11 C         140.3165  141.7046  162.4743 C.3     1  UNL1        0.0104
     12 C         139.8533  143.1293  162.5479 C.3     1  UNL1        0.0768
     13 C         138.7362  143.5078  163.4748 C.3     1  UNL1        0.0095
     14 C         137.7242  144.3514  164.1919 C.3     1  UNL1        0.0005
     15 C         139.0385  144.8470  162.8707 C.3     1  UNL1        0.0005
     16 C         138.0825  142.4615  164.3280 C.3     1  UNL1        0.0162
     17 N         137.8921  139.9904  165.1075 N.3     1  UNL1       -0.2962
     18 H         137.3225  140.4844  165.7945 H       1  UNL1        0.1235
     19 C         138.7340  139.0093  165.8680 C.3     1  UNL1        0.0768
     20 C         138.5634  137.5371  165.6369 C.3     1  UNL1        0.0220
     21 C         141.7718  140.4826  168.8431 C.ar    1  UNL1        0.1387
     22 C         140.3197  140.4340  169.2156 C.ar    1  UNL1        0.0366
     23 C         139.3071  139.9429  168.2239 C.ar    1  UNL1        0.0001
     24 C         139.7466  139.5004  166.8597 C.ar    1  UNL1       -0.0078
     25 C         141.1988  139.5490  166.4873 C.ar    1  UNL1        0.0001
     26 C         142.2114  140.0401  167.4790 C.ar    1  UNL1        0.0366
     27 C         143.5692  142.2200  169.5507 C.3     1  UNL1        0.2525
     28 O         142.7844  140.9737  169.8348 O.3     1  UNL1       -0.4714
     29 C         140.0500  145.1125  156.0597 C.ar    1  UNL1       -0.0189
     30 C         141.0153  144.5457  155.0613 C.ar    1  UNL1       -0.0040
     31 C         141.3910  145.3410  153.8462 C.ar    1  UNL1       -0.0003
     32 C         140.8012  146.7030  153.6294 C.ar    1  UNL1       -0.0000
     33 C         139.8358  147.2697  154.6278 C.ar    1  UNL1       -0.0003
     34 C         139.4602  146.4746  155.8429 C.ar    1  UNL1       -0.0040
     35 C         138.8735  143.5944  156.2326 C.ar    1  UNL1        0.0005
     36 C         137.6564  144.2405  155.6402 C.ar    1  UNL1        0.0024
     37 C         136.8556  143.5176  154.5981 C.ar    1  UNL1        0.0574
     38 C         137.2719  142.1485  154.1483 C.ar    1  UNL1        0.2250
     39 N         138.4891  141.5024  154.7407 N.ar    1  UNL1       -0.2105
     40 C         139.2899  142.2253  155.7829 C.ar    1  UNL1        0.0980
     41 O         136.4711  141.4256  153.1062 O.3     1  UNL1       -0.4561
     42 C         135.6100  140.2610  153.4962 C.3     1  UNL1        0.2542
@<TRIPOS>BOND
     1    27    28    1
     2    28    21    1
     3    21    22   ar
     4    22    23   ar
     5    23    24   ar
     6    24    19    1
     7    19    20    1
     8    19    17    1
     9     9    17    1
    10     9    10    1
    11    10    11    1
    12    11    12    1
    13    12     1    1
    14     1     2    2
    15     1     3   am
    16     3     4    1
    17     4     5    1
    18     5     6    1
    19     6    29    1
    20    29    30   ar
    21    30    31   ar
    22    31    32   ar
    23    32    33   ar
    24    33    34   ar
    25     6    35    1
    26    35    36   ar
    27    36    37   ar
    28    37    38   ar
    29    38    41    1
    30    41    42    1
    31    38    39   ar
    32    39    40   ar
    33     6     7    1
    34     7     8    1
    35    12    13    1
    36    13    14    1
    37    13    15    1
    38    13    16    1
    39    24    25   ar
    40    25    26   ar
    41    26    21   ar
    42    16     9    1
    43     8     3    1
    44    34    29   ar
    45    40    35   ar
    46    17    18    1
@<TRIPOS>MOLECULE
*****
 42 46 0 0 0
SMALL
GASTEIGER

@<TRIPOS>ATOM
      1 C         140.2466  145.0439  162.0763 C.2     1  UNL1        0.2251
      2 O         140.1759  146.5416  162.0308 O.2     1  UNL1       -0.2749
      3 N         140.2421  144.2539  160.8012 N.am    1  UNL1       -0.2795
      4 C         140.3129  142.7563  160.8467 C.3     1  UNL1        0.0940
      5 C         140.3084  141.9661  159.5717 C.3     1  UNL1        0.0297
      6 C         140.2333  142.6737  158.2511 C.3     1  UNL1        0.0425
      7 C         140.1625  144.1714  158.2057 C.3     1  UNL1        0.0297
      8 C         140.1670  144.9614  159.4807 C.3     1  UNL1        0.0940
      9 C         140.4721  142.9213  166.0378 C.3     1  UNL1        0.0542
     10 C         141.7221  143.1655  165.2455 C.3     1  UNL1        0.0162
     11 C         141.6470  143.8731  163.9250 C.3     1  UNL1        0.0104
     12 C         140.3218  144.3364  163.3968 C.3     1  UNL1        0.0768
     13 C         139.0716  144.0922  164.1890 C.3     1  UNL1        0.0095
     14 C         137.6204  144.0939  164.5684 C.3     1  UNL1        0.0005
     15 C         138.4925  144.8003  163.0003 C.3     1  UNL1        0.0005
     16 C         139.1468  143.3847  165.5095 C.3     1  UNL1        0.0162
     17 N         140.5472  142.2138  167.3583 N.3     1  UNL1       -0.2962
     18 H         141.5202  142.2583  167.6612 H       1  UNL1        0.1235
     19 C         140.1257  140.7782  167.4650 C.3     1  UNL1        0.0768
     20 C         139.7897  140.1929  168.8046 C.3     1  UNL1        0.0220
     21 C         139.8690  138.2276  163.7666 C.ar    1  UNL1        0.1387
     22 C         141.1873  138.4180  164.4564 C.ar    1  UNL1        0.0366
     23 C         141.2729  139.2682  165.6892 C.ar    1  UNL1        0.0001
     24 C         140.0401  139.9280  166.2322 C.ar    1  UNL1       -0.0078
     25 C         138.7218  139.7376  165.5425 C.ar    1  UNL1        0.0001
     26 C         138.6363  138.8874  164.3097 C.ar    1  UNL1        0.0366
     27 C         139.3773  137.9905  161.2266 C.3     1  UNL1        0.2525
     28 O         139.7834  137.3773  162.5338 O.3     1  UNL1       -0.4714
     29 C         140.1757  142.8868  156.7675 C.ar    1  UNL1       -0.0189
     30 C         138.8970  142.6397  156.0234 C.ar    1  UNL1       -0.0040
     31 C         138.8395  142.8529  154.5397 C.ar    1  UNL1       -0.0003
     32 C         140.0606  143.3130  153.8002 C.ar    1  UNL1       -0.0000
     33 C         141.3393  143.5601  154.5443 C.ar    1  UNL1       -0.0003
     34 C         141.3969  143.3470  156.0280 C.ar    1  UNL1       -0.0040
     35 C         140.2840  141.2500  157.7814 C.ar    1  UNL1        0.0005
     36 C         141.5379  140.7093  157.1607 C.ar    1  UNL1        0.0024
     37 C         141.5886  139.2857  156.6909 C.ar    1  UNL1        0.0574
     38 C         140.3854  138.4028  156.8419 C.ar    1  UNL1        0.2250
     39 N         139.1315  138.9435  157.4625 N.ar    1  UNL1       -0.2105
     40 C         139.0807  140.3671  157.9323 C.ar    1  UNL1        0.0980
     41 O         140.4361  136.9791  156.3721 O.3     1  UNL1       -0.4561
     42 C         141.7461  136.2497  156.3290 C.3     1  UNL1        0.2542
@<TRIPOS>BOND
     1    27    28    1
     2    28    21    1
     3    21    22   ar
     4    22    23   ar
     5    23    24   ar
     6    24    19    1
     7    19    20    1
     8    19    17    1
     9     9    17    1
    10     9    10    1
    11    10    11    1
    12    11    12    1
    13    12     1    1
    14     1     2    2
    15     1     3   am
    16     3     4    1
    17     4     5    1
    18     5     6    1
    19     6    29    1
    20    29    30   ar
    21    30    31   ar
    22    31    32   ar
    23    32    33   ar
    24    33    34   ar
    25     6    35    1
    26    35    36   ar
    27    36    37   ar
    28    37    38   ar
    29    38    41    1
    30    41    42    1
    31    38    39   ar
    32    39    40   ar
    33     6     7    1
    34     7     8    1
    35    12    13    1
    36    13    14    1
    37    13    15    1
    38    13    16    1
    39    24    25   ar
    40    25    26   ar
    41    26    21   ar
    42    16     9    1
    43     8     3    1
    44    34    29   ar
    45    40    35   ar
    46    17    18    1
@<TRIPOS>MOLECULE
*****
 42 46 0 0 0
SMALL
GASTEIGER

@<TRIPOS>ATOM
      1 C         140.5390  145.0273  162.1639 C.2     1  UNL1        0.2251
      2 O         140.1821  146.4810  162.0658 O.2     1  UNL1       -0.2749
      3 N         140.9266  144.2653  160.9314 N.am    1  UNL1       -0.2795
      4 C         141.2834  142.8117  161.0296 C.3     1  UNL1        0.0940
      5 C         141.6711  142.0497  159.7970 C.3     1  UNL1        0.0297
      6 C         141.7018  142.7413  158.4663 C.3     1  UNL1        0.0425
      7 C         141.3449  144.1950  158.3682 C.3     1  UNL1        0.0297
      8 C         140.9573  144.9569  159.6007 C.3     1  UNL1        0.0940
      9 C         140.4468  142.9524  166.1559 C.3     1  UNL1        0.0542
     10 C         141.7588  143.2209  165.4804 C.3     1  UNL1        0.0162
     11 C         141.7895  143.9126  164.1497 C.3     1  UNL1        0.0104
     12 C         140.5082  144.3357  163.4946 C.3     1  UNL1        0.0768
     13 C         139.1961  144.0672  164.1702 C.3     1  UNL1        0.0095
     14 C         137.7163  144.0350  164.4129 C.3     1  UNL1        0.0005
     15 C         138.7129  144.7476  162.9238 C.3     1  UNL1        0.0005
     16 C         139.1654  143.3756  165.5008 C.3     1  UNL1        0.0162
     17 N         140.4161  142.2608  167.4866 N.3     1  UNL1       -0.2962
     18 H         141.3671  142.2875  167.8544 H       1  UNL1        0.1235
     19 C         139.9551  140.8366  167.5812 C.3     1  UNL1        0.0768
     20 C         139.5208  140.2751  168.9025 C.3     1  UNL1        0.0220
     21 C         139.8750  138.2485  163.9008 C.ar    1  UNL1        0.1387
     22 C         141.1697  138.4932  164.6176 C.ar    1  UNL1        0.0366
     23 C         141.1964  139.3559  165.8444 C.ar    1  UNL1        0.0001
     24 C         139.9284  139.9739  166.3544 C.ar    1  UNL1       -0.0078
     25 C         138.6337  139.7292  165.6376 C.ar    1  UNL1        0.0001
     26 C         138.6070  138.8665  164.4108 C.ar    1  UNL1        0.0366
     27 C         139.6334  138.0062  161.3253 C.3     1  UNL1        0.2525
     28 O         139.8483  137.3858  162.6740 O.3     1  UNL1       -0.4714
     29 C         141.8777  142.9537  156.9919 C.ar    1  UNL1       -0.0189
     30 C         140.6797  142.9781  156.0895 C.ar    1  UNL1       -0.0040
     31 C         140.8556  143.1905  154.6151 C.ar    1  UNL1       -0.0003
     32 C         142.2294  143.3785  154.0430 C.ar    1  UNL1       -0.0000
     33 C         143.4273  143.3541  154.9454 C.ar    1  UNL1       -0.0003
     34 C         143.2515  143.1417  156.4199 C.ar    1  UNL1       -0.0040
     35 C         142.1197  141.3614  158.0525 C.ar    1  UNL1        0.0005
     36 C         141.1169  140.4234  157.4489 C.ar    1  UNL1        0.0024
     37 C         141.5349  139.0436  157.0350 C.ar    1  UNL1        0.0574
     38 C         142.9557  138.6018  157.2247 C.ar    1  UNL1        0.2250
     39 N         143.9586  139.5398  157.8283 N.ar    1  UNL1       -0.2105
     40 C         143.5406  140.9196  158.2422 C.ar    1  UNL1        0.0980
     41 O         143.3737  137.2219  156.8109 O.3     1  UNL1       -0.4561
     42 C         142.3360  136.1991  156.4545 C.3     1  UNL1        0.2542
@<TRIPOS>BOND
     1    27    28    1
     2    28    21    1
     3    21    22   ar
     4    22    23   ar
     5    23    24   ar
     6    24    19    1
     7    19    20    1
     8    19    17    1
     9     9    17    1
    10     9    10    1
    11    10    11    1
    12    11    12    1
    13    12     1    1
    14     1     2    2
    15     1     3   am
    16     3     4    1
    17     4     5    1
    18     5     6    1
    19     6    29    1
    20    29    30   ar
    21    30    31   ar
    22    31    32   ar
    23    32    33   ar
    24    33    34   ar
    25     6    35    1
    26    35    36   ar
    27    36    37   ar
    28    37    38   ar
    29    38    41    1
    30    41    42    1
    31    38    39   ar
    32    39    40   ar
    33     6     7    1
    34     7     8    1
    35    12    13    1
    36    13    14    1
    37    13    15    1
    38    13    16    1
    39    24    25   ar
    40    25    26   ar
    41    26    21   ar
    42    16     9    1
    43     8     3    1
    44    34    29   ar
    45    40    35   ar
    46    17    18    1
@<TRIPOS>MOLECULE
*****
 42 46 0 0 0
SMALL
GASTEIGER

@<TRIPOS>ATOM
      1 C         143.1562  144.0815  162.2993 C.2     1  UNL1        0.2251
      2 O         144.4120  144.8846  162.4676 O.2     1  UNL1       -0.2749
      3 N         142.6800  143.1926  163.4097 N.am    1  UNL1       -0.2795
      4 C         141.4243  142.3897  163.2415 C.3     1  UNL1        0.0940
      5 C         140.9480  141.5007  164.3519 C.3     1  UNL1        0.0297
      6 C         141.7275  141.4148  165.6305 C.3     1  UNL1        0.0425
      7 C         142.9833  142.2178  165.7988 C.3     1  UNL1        0.0297
      8 C         143.4595  143.1067  164.6884 C.3     1  UNL1        0.0940
      9 C         140.8176  144.3394  158.4634 C.3     1  UNL1        0.0542
     10 C         140.3852  145.1334  159.6602 C.3     1  UNL1        0.0162
     11 C         141.1647  145.0474  160.9389 C.3     1  UNL1        0.0104
     12 C         142.3767  144.1675  161.0207 C.3     1  UNL1        0.0768
     13 C         142.8092  143.3734  159.8238 C.3     1  UNL1        0.0095
     14 C         143.6088  142.4366  158.9677 C.3     1  UNL1        0.0005
     15 C         143.8664  142.9621  160.8051 C.3     1  UNL1        0.0005
     16 C         142.0297  143.4594  158.5451 C.3     1  UNL1        0.0162
     17 N         140.0381  144.4253  157.1847 N.3     1  UNL1       -0.2962
     18 H         139.9981  143.4814  156.8002 H       1  UNL1        0.1235
     19 C         140.5076  145.3237  156.0790 C.3     1  UNL1        0.0768
     20 C         141.5720  144.8542  155.1322 C.3     1  UNL1        0.0220
     21 C         138.7228  149.4270  155.6026 C.ar    1  UNL1        0.1387
     22 C         138.5213  148.6651  156.8788 C.ar    1  UNL1        0.0366
     23 C         139.1163  147.2973  157.0376 C.ar    1  UNL1        0.0001
     24 C         139.9127  146.6915  155.9202 C.ar    1  UNL1       -0.0078
     25 C         140.1141  147.4534  154.6440 C.ar    1  UNL1        0.0001
     26 C         139.5191  148.8212  154.4852 C.ar    1  UNL1        0.0366
     27 C         139.0202  151.9796  155.2207 C.3     1  UNL1        0.2525
     28 O         138.1278  150.7948  155.4438 O.3     1  UNL1       -0.4714
     29 C         142.1180  140.9999  167.0181 C.ar    1  UNL1       -0.0189
     30 C         142.1617  142.0163  168.1204 C.ar    1  UNL1       -0.0040
     31 C         142.5522  141.6014  169.5080 C.ar    1  UNL1       -0.0003
     32 C         142.8990  140.1703  169.7933 C.ar    1  UNL1       -0.0000
     33 C         142.8553  139.1539  168.6910 C.ar    1  UNL1       -0.0003
     34 C         142.4648  139.5687  167.3034 C.ar    1  UNL1       -0.0040
     35 C         140.6074  140.4677  165.9442 C.ar    1  UNL1        0.0005
     36 C         140.3463  139.2924  165.0496 C.ar    1  UNL1        0.0024
     37 C         139.2261  138.3453  165.3632 C.ar    1  UNL1        0.0574
     38 C         138.3671  138.5737  166.5715 C.ar    1  UNL1        0.2250
     39 N         138.6281  139.7490  167.4661 N.ar    1  UNL1       -0.2105
     40 C         139.7483  140.6961  167.1525 C.ar    1  UNL1        0.0980
     41 O         137.2469  137.6266  166.8851 O.3     1  UNL1       -0.4561
     42 C         136.4836  137.7665  168.1688 C.3     1  UNL1        0.2542
@<TRIPOS>BOND
     1    27    28    1
     2    28    21    1
     3    21    22   ar
     4    22    23   ar
     5    23    24   ar
     6    24    19    1
     7    19    20    1
     8    19    17    1
     9     9    17    1
    10     9    10    1
    11    10    11    1
    12    11    12    1
    13    12     1    1
    14     1     2    2
    15     1     3   am
    16     3     4    1
    17     4     5    1
    18     5     6    1
    19     6    29    1
    20    29    30   ar
    21    30    31   ar
    22    31    32   ar
    23    32    33   ar
    24    33    34   ar
    25     6    35    1
    26    35    36   ar
    27    36    37   ar
    28    37    38   ar
    29    38    41    1
    30    41    42    1
    31    38    39   ar
    32    39    40   ar
    33     6     7    1
    34     7     8    1
    35    12    13    1
    36    13    14    1
    37    13    15    1
    38    13    16    1
    39    24    25   ar
    40    25    26   ar
    41    26    21   ar
    42    16     9    1
    43     8     3    1
    44    34    29   ar
    45    40    35   ar
    46    17    18    1
@<TRIPOS>MOLECULE
*****
 42 46 0 0 0
SMALL
GASTEIGER

@<TRIPOS>ATOM
      1 C         140.3577  144.0906  161.5771 C.2     1  UNL1        0.2251
      2 O         141.2977  145.0490  162.2464 O.2     1  UNL1       -0.2749
      3 N         140.1055  144.1942  160.1021 N.am    1  UNL1       -0.2795
      4 C         139.1655  143.2358  159.4329 C.3     1  UNL1        0.0940
      5 C         138.9133  143.3393  157.9578 C.3     1  UNL1        0.0297
      6 C         139.6010  144.4013  157.1521 C.3     1  UNL1        0.0425
      7 C         140.5411  145.3597  157.8214 C.3     1  UNL1        0.0297
      8 C         140.7932  145.2561  159.2964 C.3     1  UNL1        0.0940
      9 C         138.2944  140.9047  163.9943 C.3     1  UNL1        0.0542
     10 C         139.3206  140.5219  162.9695 C.3     1  UNL1        0.0162
     11 C         140.0084  141.5838  162.1638 C.3     1  UNL1        0.0104
     12 C         139.6699  143.0286  162.3828 C.3     1  UNL1        0.0768
     13 C         138.6436  143.4115  163.4076 C.3     1  UNL1        0.0095
     14 C         137.7482  144.2662  164.2548 C.3     1  UNL1        0.0005
     15 C         139.0204  144.7702  162.8961 C.3     1  UNL1        0.0005
     16 C         137.9559  142.3495  164.2134 C.3     1  UNL1        0.0162
     17 N         137.6066  139.8427  164.8000 N.3     1  UNL1       -0.2962
     18 H         136.8140  140.2897  165.2608 H       1  UNL1        0.1235
     19 C         138.3620  139.0996  165.8617 C.3     1  UNL1        0.0768
     20 C         137.6229  138.4600  166.9995 C.3     1  UNL1        0.0220
     21 C         142.8455  138.7893  165.6334 C.ar    1  UNL1        0.1387
     22 C         141.9871  137.8197  164.8764 C.ar    1  UNL1        0.0366
     23 C         140.4926  137.9232  164.9525 C.ar    1  UNL1        0.0001
     24 C         139.8565  138.9962  165.7856 C.ar    1  UNL1       -0.0078
     25 C         140.7149  139.9657  166.5425 C.ar    1  UNL1        0.0001
     26 C         142.2094  139.8623  166.4664 C.ar    1  UNL1        0.0366
     27 C         145.0814  139.3481  164.4341 C.3     1  UNL1        0.2525
     28 O         144.3400  138.6858  165.5573 O.3     1  UNL1       -0.4714
     29 C         140.0119  145.2304  155.9715 C.ar    1  UNL1       -0.0189
     30 C         139.4543  146.6117  155.7946 C.ar    1  UNL1       -0.0040
     31 C         139.8653  147.4408  154.6140 C.ar    1  UNL1       -0.0003
     32 C         140.8336  146.8888  153.6104 C.ar    1  UNL1       -0.0000
     33 C         141.3912  145.5075  153.7874 C.ar    1  UNL1       -0.0003
     34 C         140.9804  144.6783  154.9679 C.ar    1  UNL1       -0.0040
     35 C         138.8038  143.7309  156.0728 C.ar    1  UNL1        0.0005
     36 C         137.6412  144.4427  155.4471 C.ar    1  UNL1        0.0024
     37 C         136.8439  143.7722  154.3678 C.ar    1  UNL1        0.0574
     38 C         137.2092  142.3899  153.9143 C.ar    1  UNL1        0.2250
     39 N         138.3718  141.6781  154.5400 N.ar    1  UNL1       -0.2105
     40 C         139.1691  142.3485  155.6193 C.ar    1  UNL1        0.0980
     41 O         136.4119  141.7194  152.8350 O.3     1  UNL1       -0.4561
     42 C         135.3510  140.7223  153.1957 C.3     1  UNL1        0.2542
@<TRIPOS>BOND
     1    27    28    1
     2    28    21    1
     3    21    22   ar
     4    22    23   ar
     5    23    24   ar
     6    24    19    1
     7    19    20    1
     8    19    17    1
     9     9    17    1
    10     9    10    1
    11    10    11    1
    12    11    12    1
    13    12     1    1
    14     1     2    2
    15     1     3   am
    16     3     4    1
    17     4     5    1
    18     5     6    1
    19     6    29    1
    20    29    30   ar
    21    30    31   ar
    22    31    32   ar
    23    32    33   ar
    24    33    34   ar
    25     6    35    1
    26    35    36   ar
    27    36    37   ar
    28    37    38   ar
    29    38    41    1
    30    41    42    1
    31    38    39   ar
    32    39    40   ar
    33     6     7    1
    34     7     8    1
    35    12    13    1
    36    13    14    1
    37    13    15    1
    38    13    16    1
    39    24    25   ar
    40    25    26   ar
    41    26    21   ar
    42    16     9    1
    43     8     3    1
    44    34    29   ar
    45    40    35   ar
    46    17    18    1
@<TRIPOS>MOLECULE
*****
 42 46 0 0 0
SMALL
GASTEIGER

@<TRIPOS>ATOM
      1 C         144.8640  141.5775  162.7984 C.2     1  UNL1        0.2251
      2 O         146.3555  141.7329  162.8355 O.2     1  UNL1       -0.2749
      3 N         144.1111  141.8659  161.5335 N.am    1  UNL1       -0.2795
      4 C         142.6197  141.7106  161.4965 C.3     1  UNL1        0.0940
      5 C         141.8667  141.9990  160.2315 C.3     1  UNL1        0.0297
      6 C         142.6053  142.4428  159.0037 C.3     1  UNL1        0.0425
      7 C         144.0968  142.5981  159.0408 C.3     1  UNL1        0.0297
      8 C         144.8497  142.3097  160.3057 C.3     1  UNL1        0.0940
      9 C         142.6482  140.2462  166.4819 C.3     1  UNL1        0.0542
     10 C         142.8788  139.2823  165.3560 C.3     1  UNL1        0.0162
     11 C         143.6174  139.7261  164.1281 C.3     1  UNL1        0.0104
     12 C         144.1254  141.1337  164.0262 C.3     1  UNL1        0.0768
     13 C         143.8948  142.0977  165.1522 C.3     1  UNL1        0.0095
     14 C         143.9242  143.3690  165.9477 C.3     1  UNL1        0.0005
     15 C         144.6436  142.9830  164.2007 C.3     1  UNL1        0.0005
     16 C         143.1562  141.6539  166.3800 C.3     1  UNL1        0.0162
     17 N         141.9096  139.8024  167.7097 N.3     1  UNL1       -0.2962
     18 H         141.9822  138.7856  167.7455 H       1  UNL1        0.1235
     19 C         140.4572  140.1389  167.8739 C.3     1  UNL1        0.0768
     20 C         139.8194  140.0673  169.2296 C.3     1  UNL1        0.0220
     21 C         138.0132  141.3632  164.2993 C.ar    1  UNL1        0.1387
     22 C         138.0187  139.9325  164.7496 C.ar    1  UNL1        0.0366
     23 C         138.8333  139.5244  165.9412 C.ar    1  UNL1        0.0001
     24 C         139.6425  140.5470  166.6823 C.ar    1  UNL1       -0.0078
     25 C         139.6370  141.9778  166.2320 C.ar    1  UNL1        0.0001
     26 C         138.8223  142.3859  165.0404 C.ar    1  UNL1        0.0366
     27 C         137.8811  142.2518  161.8615 C.3     1  UNL1        0.2525
     28 O         137.1985  141.7713  163.1077 O.3     1  UNL1       -0.4714
     29 C         142.8562  142.8860  157.5929 C.ar    1  UNL1       -0.0189
     30 C         143.5937  141.9880  156.6445 C.ar    1  UNL1       -0.0040
     31 C         143.8446  142.4313  155.2336 C.ar    1  UNL1       -0.0003
     32 C         143.3580  143.7726  154.7711 C.ar    1  UNL1       -0.0000
     33 C         142.6204  144.6707  155.7195 C.ar    1  UNL1       -0.0003
     34 C         142.3695  144.2274  157.1304 C.ar    1  UNL1       -0.0040
     35 C         141.2010  142.4413  158.4767 C.ar    1  UNL1        0.0005
     36 C         140.7900  141.4383  157.4399 C.ar    1  UNL1        0.0024
     37 C         139.3857  141.4369  156.9128 C.ar    1  UNL1        0.0574
     38 C         138.3923  142.4385  157.4227 C.ar    1  UNL1        0.2250
     39 N         138.8032  143.4415  158.4595 N.ar    1  UNL1       -0.2105
     40 C         140.2075  143.4430  158.9865 C.ar    1  UNL1        0.0980
     41 O         136.9879  142.4371  156.8956 O.3     1  UNL1       -0.4561
     42 C         136.3711  141.1598  156.4077 C.3     1  UNL1        0.2542
@<TRIPOS>BOND
     1    27    28    1
     2    28    21    1
     3    21    22   ar
     4    22    23   ar
     5    23    24   ar
     6    24    19    1
     7    19    20    1
     8    19    17    1
     9     9    17    1
    10     9    10    1
    11    10    11    1
    12    11    12    1
    13    12     1    1
    14     1     2    2
    15     1     3   am
    16     3     4    1
    17     4     5    1
    18     5     6    1
    19     6    29    1
    20    29    30   ar
    21    30    31   ar
    22    31    32   ar
    23    32    33   ar
    24    33    34   ar
    25     6    35    1
    26    35    36   ar
    27    36    37   ar
    28    37    38   ar
    29    38    41    1
    30    41    42    1
    31    38    39   ar
    32    39    40   ar
    33     6     7    1
    34     7     8    1
    35    12    13    1
    36    13    14    1
    37    13    15    1
    38    13    16    1
    39    24    25   ar
    40    25    26   ar
    41    26    21   ar
    42    16     9    1
    43     8     3    1
    44    34    29   ar
    45    40    35   ar
    46    17    18    1
@<TRIPOS>MOLECULE
*****
 42 46 0 0 0
SMALL
GASTEIGER

@<TRIPOS>ATOM
      1 C         140.8360  144.8075  162.7397 C.2     1  UNL1        0.2251
      2 O         140.7476  146.3010  162.8477 O.2     1  UNL1       -0.2749
      3 N         140.5788  144.1341  161.4242 N.am    1  UNL1       -0.2795
      4 C         140.6672  142.6407  161.3163 C.3     1  UNL1        0.0940
      5 C         140.4101  141.9672  160.0008 C.3     1  UNL1        0.0297
      6 C         140.0645  142.7873  158.7933 C.3     1  UNL1        0.0425
      7 C         139.9761  144.2809  158.9013 C.3     1  UNL1        0.0297
      8 C         140.2333  144.9542  160.2167 C.3     1  UNL1        0.0940
      9 C         141.8726  142.3472  166.3621 C.3     1  UNL1        0.0542
     10 C         140.4359  142.6049  166.0166 C.3     1  UNL1        0.0162
     11 C         140.0904  143.4250  164.8092 C.3     1  UNL1        0.0104
     12 C         141.1815  143.9874  163.9472 C.3     1  UNL1        0.0768
     13 C         142.6183  143.7296  164.2926 C.3     1  UNL1        0.0095
     14 C         144.1156  143.7604  164.2086 C.3     1  UNL1        0.0005
     15 C         142.7928  144.5604  163.0560 C.3     1  UNL1        0.0005
     16 C         142.9639  142.9095  165.5001 C.3     1  UNL1        0.0162
     17 N         142.2182  141.5271  167.5696 N.3     1  UNL1       -0.2962
     18 H         143.1521  141.8138  167.8629 H       1  UNL1        0.1235
     19 C         142.2330  140.0298  167.4802 C.3     1  UNL1        0.0768
     20 C         142.6004  139.2104  168.6816 C.3     1  UNL1        0.0220
     21 C         141.1756  137.9966  163.6075 C.ar    1  UNL1        0.1387
     22 C         140.1028  138.3077  164.6085 C.ar    1  UNL1        0.0366
     23 C         140.4553  138.9855  165.8994 C.ar    1  UNL1        0.0001
     24 C         141.8806  139.3521  166.1893 C.ar    1  UNL1       -0.0078
     25 C         142.9534  139.0409  165.1882 C.ar    1  UNL1        0.0001
     26 C         142.6010  138.3631  163.8973 C.ar    1  UNL1        0.0366
     27 C         139.9316  138.0080  161.3267 C.3     1  UNL1        0.2525
     28 O         140.8232  137.3188  162.3166 O.3     1  UNL1       -0.4714
     29 C         139.7065  143.1301  157.3776 C.ar    1  UNL1       -0.0189
     30 C         140.7407  143.7175  156.4637 C.ar    1  UNL1       -0.0040
     31 C         140.3826  144.0603  155.0479 C.ar    1  UNL1       -0.0003
     32 C         138.9905  143.8156  154.5461 C.ar    1  UNL1       -0.0000
     33 C         137.9563  143.2282  155.4601 C.ar    1  UNL1       -0.0003
     34 C         138.3142  142.8854  156.8758 C.ar    1  UNL1       -0.0040
     35 C         140.0286  141.4128  158.1937 C.ar    1  UNL1        0.0005
     36 C         141.1352  140.9606  157.2878 C.ar    1  UNL1        0.0024
     37 C         141.0993  139.5862  156.6882 C.ar    1  UNL1        0.0574
     38 C         139.9566  138.6639  156.9945 C.ar    1  UNL1        0.2250
     39 N         138.8499  139.1162  157.9004 N.ar    1  UNL1       -0.2105
     40 C         138.8859  140.4906  158.5000 C.ar    1  UNL1        0.0980
     41 O         139.9207  137.2895  156.3949 O.3     1  UNL1       -0.4561
     42 C         141.2012  136.5693  156.0926 C.3     1  UNL1        0.2542
@<TRIPOS>BOND
     1    27    28    1
     2    28    21    1
     3    21    22   ar
     4    22    23   ar
     5    23    24   ar
     6    24    19    1
     7    19    20    1
     8    19    17    1
     9     9    17    1
    10     9    10    1
    11    10    11    1
    12    11    12    1
    13    12     1    1
    14     1     2    2
    15     1     3   am
    16     3     4    1
    17     4     5    1
    18     5     6    1
    19     6    29    1
    20    29    30   ar
    21    30    31   ar
    22    31    32   ar
    23    32    33   ar
    24    33    34   ar
    25     6    35    1
    26    35    36   ar
    27    36    37   ar
    28    37    38   ar
    29    38    41    1
    30    41    42    1
    31    38    39   ar
    32    39    40   ar
    33     6     7    1
    34     7     8    1
    35    12    13    1
    36    13    14    1
    37    13    15    1
    38    13    16    1
    39    24    25   ar
    40    25    26   ar
    41    26    21   ar
    42    16     9    1
    43     8     3    1
    44    34    29   ar
    45    40    35   ar
    46    17    18    1
@<TRIPOS>MOLECULE
*****
 42 46 0 0 0
SMALL
GASTEIGER

@<TRIPOS>ATOM
      1 C         143.2375  144.0008  162.3286 C.2     1  UNL1        0.2251
      2 O         144.4390  144.8797  162.5131 O.2     1  UNL1       -0.2749
      3 N         142.7540  143.1441  163.4609 N.am    1  UNL1       -0.2795
      4 C         141.5525  142.2652  163.2764 C.3     1  UNL1        0.0940
      5 C         141.0690  141.4084  164.4087 C.3     1  UNL1        0.0297
      6 C         141.7869  141.4305  165.7256 C.3     1  UNL1        0.0425
      7 C         142.9884  142.3094  165.9100 C.3     1  UNL1        0.0297
      8 C         143.4719  143.1662  164.7777 C.3     1  UNL1        0.0940
      9 C         141.0836  143.9344  158.3781 C.3     1  UNL1        0.0542
     10 C         140.5343  144.7394  159.5183 C.3     1  UNL1        0.0162
     11 C         141.2523  144.7615  160.8352 C.3     1  UNL1        0.0104
     12 C         142.5195  143.9787  161.0117 C.3     1  UNL1        0.0768
     13 C         143.0688  143.1736  159.8715 C.3     1  UNL1        0.0095
     14 C         143.9770  142.2669  159.0948 C.3     1  UNL1        0.0005
     15 C         144.1022  142.8809  160.9186 C.3     1  UNL1        0.0005
     16 C         142.3509  143.1515  158.5546 C.3     1  UNL1        0.0162
     17 N         140.3657  143.9123  157.0612 N.3     1  UNL1       -0.2962
     18 H         139.7993  144.7596  157.0204 H       1  UNL1        0.1235
     19 C         139.4577  142.7678  156.7212 C.3     1  UNL1        0.0768
     20 C         138.6862  142.7791  155.4349 C.3     1  UNL1        0.0220
     21 C         139.0482  139.3003  159.5600 C.ar    1  UNL1        0.1387
     22 C         140.0664  139.2525  158.4596 C.ar    1  UNL1        0.0366
     23 C         140.2029  140.4083  157.5133 C.ar    1  UNL1        0.0001
     24 C         139.3212  141.6120  157.6674 C.ar    1  UNL1       -0.0078
     25 C         138.3030  141.6598  158.7678 C.ar    1  UNL1        0.0001
     26 C         138.1665  140.5039  159.7141 C.ar    1  UNL1        0.0366
     27 C         139.8624  138.0014  161.6575 C.3     1  UNL1        0.2525
     28 O         138.9117  138.1444  160.5062 O.3     1  UNL1       -0.4714
     29 C         142.1289  141.1086  167.1501 C.ar    1  UNL1       -0.0189
     30 C         142.1330  142.1950  168.1843 C.ar    1  UNL1       -0.0040
     31 C         142.4750  141.8730  169.6090 C.ar    1  UNL1       -0.0003
     32 C         142.8127  140.4648  169.9993 C.ar    1  UNL1       -0.0000
     33 C         142.8086  139.3783  168.9651 C.ar    1  UNL1       -0.0003
     34 C         142.4667  139.7002  167.5405 C.ar    1  UNL1       -0.0040
     35 C         140.7042  140.4398  166.0358 C.ar    1  UNL1        0.0005
     36 C         139.7633  140.6899  167.1768 C.ar    1  UNL1        0.0024
     37 C         138.6806  139.6992  167.4870 C.ar    1  UNL1        0.0574
     38 C         138.5388  138.4584  166.6561 C.ar    1  UNL1        0.2250
     39 N         139.4798  138.2083  165.5151 N.ar    1  UNL1       -0.2105
     40 C         140.5625  139.1990  165.2049 C.ar    1  UNL1        0.0980
     41 O         137.4561  137.4677  166.9663 O.3     1  UNL1       -0.4561
     42 C         136.5321  137.7043  168.1240 C.3     1  UNL1        0.2542
@<TRIPOS>BOND
     1    27    28    1
     2    28    21    1
     3    21    22   ar
     4    22    23   ar
     5    23    24   ar
     6    24    19    1
     7    19    20    1
     8    19    17    1
     9     9    17    1
    10     9    10    1
    11    10    11    1
    12    11    12    1
    13    12     1    1
    14     1     2    2
    15     1     3   am
    16     3     4    1
    17     4     5    1
    18     5     6    1
    19     6    29    1
    20    29    30   ar
    21    30    31   ar
    22    31    32   ar
    23    32    33   ar
    24    33    34   ar
    25     6    35    1
    26    35    36   ar
    27    36    37   ar
    28    37    38   ar
    29    38    41    1
    30    41    42    1
    31    38    39   ar
    32    39    40   ar
    33     6     7    1
    34     7     8    1
    35    12    13    1
    36    13    14    1
    37    13    15    1
    38    13    16    1
    39    24    25   ar
    40    25    26   ar
    41    26    21   ar
    42    16     9    1
    43     8     3    1
    44    34    29   ar
    45    40    35   ar
    46    17    18    1
@<TRIPOS>MOLECULE
*****
 42 46 0 0 0
SMALL
GASTEIGER

@<TRIPOS>ATOM
      1 C         143.5767  143.5057  162.3939 C.2     1  UNL1        0.2251
      2 O         144.5196  144.6693  162.4780 O.2     1  UNL1       -0.2749
      3 N         143.4118  142.7661  161.0994 N.am    1  UNL1       -0.2795
      4 C         142.4689  141.6026  161.0153 C.3     1  UNL1        0.0940
      5 C         142.3040  140.8629  159.7208 C.3     1  UNL1        0.0297
      6 C         143.0820  141.2867  158.5104 C.3     1  UNL1        0.0425
      7 C         144.0249  142.4503  158.5945 C.3     1  UNL1        0.0297
      8 C         144.1898  143.1900  159.8890 C.3     1  UNL1        0.0940
      9 C         141.2427  142.2341  166.0250 C.3     1  UNL1        0.0542
     10 C         142.5029  141.5110  165.6523 C.3     1  UNL1        0.0162
     11 C         143.2809  141.9349  164.4420 C.3     1  UNL1        0.0104
     12 C         142.7987  143.0819  163.6042 C.3     1  UNL1        0.0768
     13 C         141.5384  143.8051  163.9769 C.3     1  UNL1        0.0095
     14 C         140.4126  144.7948  163.9227 C.3     1  UNL1        0.0005
     15 C         141.9254  144.5726  162.7477 C.3     1  UNL1        0.0005
     16 C         140.7604  143.3812  165.1873 C.3     1  UNL1        0.0162
     17 N         140.4647  141.8102  167.2354 N.3     1  UNL1       -0.2962
     18 H         141.1368  141.7044  167.9953 H       1  UNL1        0.1235
     19 C         139.6494  140.5517  167.2001 C.3     1  UNL1        0.0768
     20 C         139.1717  139.9314  168.4795 C.3     1  UNL1        0.0220
     21 C         138.6365  138.6369  163.2557 C.ar    1  UNL1        0.1387
     22 C         139.5869  137.9580  164.1969 C.ar    1  UNL1        0.0366
     23 C         139.9245  138.5963  165.5117 C.ar    1  UNL1        0.0001
     24 C         139.3118  139.9134  165.8853 C.ar    1  UNL1       -0.0078
     25 C         138.3614  140.5923  164.9441 C.ar    1  UNL1        0.0001
     26 C         138.0238  139.9540  163.6293 C.ar    1  UNL1        0.0366
     27 C         139.1529  138.2647  160.7368 C.3     1  UNL1        0.2525
     28 O         138.2989  137.9986  161.9409 O.3     1  UNL1       -0.4714
     29 C         143.5943  141.3092  157.1008 C.ar    1  UNL1       -0.0189
     30 C         144.9684  140.7918  156.7939 C.ar    1  UNL1       -0.0040
     31 C         145.4807  140.8143  155.3842 C.ar    1  UNL1       -0.0003
     32 C         144.6191  141.3542  154.2816 C.ar    1  UNL1       -0.0000
     33 C         143.2450  141.8717  154.5886 C.ar    1  UNL1       -0.0003
     34 C         142.7326  141.8492  155.9981 C.ar    1  UNL1       -0.0040
     35 C         142.3170  140.1310  157.9368 C.ar    1  UNL1        0.0005
     36 C         143.0094  138.8246  157.6844 C.ar    1  UNL1        0.0024
     37 C         142.2444  137.6688  157.1108 C.ar    1  UNL1        0.0574
     38 C         140.7870  137.8196  156.7895 C.ar    1  UNL1        0.2250
     39 N         140.0946  139.1260  157.0420 N.ar    1  UNL1       -0.2105
     40 C         140.8595  140.2817  157.6156 C.ar    1  UNL1        0.0980
     41 O         140.0220  136.6638  156.2159 O.3     1  UNL1       -0.4561
     42 C         140.6414  135.8094  155.1500 C.3     1  UNL1        0.2542
@<TRIPOS>BOND
     1    27    28    1
     2    28    21    1
     3    21    22   ar
     4    22    23   ar
     5    23    24   ar
     6    24    19    1
     7    19    20    1
     8    19    17    1
     9     9    17    1
    10     9    10    1
    11    10    11    1
    12    11    12    1
    13    12     1    1
    14     1     2    2
    15     1     3   am
    16     3     4    1
    17     4     5    1
    18     5     6    1
    19     6    29    1
    20    29    30   ar
    21    30    31   ar
    22    31    32   ar
    23    32    33   ar
    24    33    34   ar
    25     6    35    1
    26    35    36   ar
    27    36    37   ar
    28    37    38   ar
    29    38    41    1
    30    41    42    1
    31    38    39   ar
    32    39    40   ar
    33     6     7    1
    34     7     8    1
    35    12    13    1
    36    13    14    1
    37    13    15    1
    38    13    16    1
    39    24    25   ar
    40    25    26   ar
    41    26    21   ar
    42    16     9    1
    43     8     3    1
    44    34    29   ar
    45    40    35   ar
    46    17    18    1
