@<TRIPOS>MOLECULE
*****
 24 27 0 0 0
SMALL
GASTEIGER

@<TRIPOS>ATOM
      1 C         139.3642  137.6185  164.5075 C.ar    1  UNL1       -0.0207
      2 C         140.8471  137.4459  164.6531 C.ar    1  UNL1       -0.0027
      3 C         141.7399  137.5897  163.4564 C.ar    1  UNL1        0.0188
      4 C         141.1500  137.9061  162.1141 C.ar    1  UNL1        0.0812
      5 N         142.0429  138.0499  160.9174 N.ar    1  UNL1       -0.2454
      6 C         141.4529  138.3663  159.5751 C.ar    1  UNL1        0.0813
      7 C         139.9700  138.5389  159.4295 C.ar    1  UNL1        0.0191
      8 C         139.0771  138.3951  160.6262 C.ar    1  UNL1        0.0030
      9 C         139.6671  138.0787  161.9685 C.ar    1  UNL1        0.0174
     10 C         138.7742  137.9349  163.1652 C.ar    1  UNL1       -0.0027
     11 C         142.3458  138.5101  158.3785 C.ar    1  UNL1        0.0207
     12 C         143.0700  139.8007  158.1337 C.ar    1  UNL1        0.0222
     13 C         143.9629  139.9445  156.9371 C.ar    1  UNL1        0.0989
     14 N         144.1316  138.7977  155.9851 N.ar    1  UNL1       -0.2423
     15 C         143.4075  137.5071  156.2297 C.ar    1  UNL1        0.0989
     16 C         142.5145  137.3632  157.4264 C.ar    1  UNL1        0.0222
     17 C         138.4712  137.4748  165.7042 C.3     1  UNL1        0.0437
     18 C         138.0251  138.6926  166.4577 C.3     1  UNL1        0.0768
     19 C         138.2045  141.2773  164.4737 C.3     1  UNL1        0.0173
     20 C         139.0360  141.0486  165.7010 C.3     1  UNL1        0.0576
     21 C         140.0960  141.9677  166.2318 C.3     1  UNL1        0.0174
     22 C         140.6686  141.3476  167.4718 C.3     1  UNL1        0.0187
     23 C         139.9626  140.0452  167.7074 C.3     1  UNL1        0.0721
     24 N         138.9536  139.8605  166.6129 N.3     1  UNL1       -0.2737
@<TRIPOS>BOND
     1    20    19    1
     2    20    21    1
     3    21    22    1
     4    22    23    1
     5    23    24    1
     6    24    18    1
     7    18    17    1
     8    17     1    1
     9     1     2   ar
    10     2     3   ar
    11     3     4   ar
    12     4     5   ar
    13     5     6   ar
    14     6    11    1
    15    11    12   ar
    16    12    13   ar
    17    13    14   ar
    18    14    15   ar
    19    15    16   ar
    20     6     7   ar
    21     7     8   ar
    22     8     9   ar
    23     9    10   ar
    24    24    20    1
    25    10     1   ar
    26     9     4   ar
    27    16    11   ar
@<TRIPOS>MOLECULE
*****
 24 27 0 0 0
SMALL
GASTEIGER

@<TRIPOS>ATOM
      1 C         139.3636  138.7104  162.3788 C.ar    1  UNL1       -0.0207
      2 C         139.4513  137.5949  163.3778 C.ar    1  UNL1       -0.0027
      3 C         139.6446  137.9046  164.8326 C.ar    1  UNL1        0.0188
      4 C         139.7502  139.3297  165.2885 C.ar    1  UNL1        0.0812
      5 N         139.9435  139.6394  166.7435 N.ar    1  UNL1       -0.2454
      6 C         140.0491  141.0645  167.1994 C.ar    1  UNL1        0.0813
      7 C         139.9614  142.1800  166.2003 C.ar    1  UNL1        0.0191
      8 C         139.7681  141.8703  164.7454 C.ar    1  UNL1        0.0030
      9 C         139.6625  140.4452  164.2895 C.ar    1  UNL1        0.0174
     10 C         139.4692  140.1355  162.8347 C.ar    1  UNL1       -0.0027
     11 C         140.2424  141.3742  168.6542 C.ar    1  UNL1        0.0207
     12 C         140.2652  142.7996  169.1211 C.ar    1  UNL1        0.0222
     13 C         140.4585  143.1092  170.5759 C.ar    1  UNL1        0.0989
     14 N         140.6290  141.9936  171.5640 N.ar    1  UNL1       -0.2423
     15 C         140.6062  140.5683  171.0972 C.ar    1  UNL1        0.0989
     16 C         140.4129  140.2586  169.6423 C.ar    1  UNL1        0.0222
     17 C         139.1702  138.4007  160.9238 C.3     1  UNL1        0.0437
     18 C         140.3062  138.5818  159.9611 C.3     1  UNL1        0.0768
     19 C         141.9507  141.3728  160.3549 C.3     1  UNL1        0.0173
     20 C         142.4657  139.9962  160.6545 C.3     1  UNL1        0.0576
     21 C         143.8271  139.6608  161.1877 C.3     1  UNL1        0.0174
     22 C         143.9125  138.1706  161.3362 C.3     1  UNL1        0.0187
     23 C         142.6039  137.5850  160.8948 C.3     1  UNL1        0.0721
     24 N         141.7098  138.7133  160.4735 N.3     1  UNL1       -0.2737
@<TRIPOS>BOND
     1    20    19    1
     2    20    21    1
     3    21    22    1
     4    22    23    1
     5    23    24    1
     6    24    18    1
     7    18    17    1
     8    17     1    1
     9     1     2   ar
    10     2     3   ar
    11     3     4   ar
    12     4     5   ar
    13     5     6   ar
    14     6    11    1
    15    11    12   ar
    16    12    13   ar
    17    13    14   ar
    18    14    15   ar
    19    15    16   ar
    20     6     7   ar
    21     7     8   ar
    22     8     9   ar
    23     9    10   ar
    24    24    20    1
    25    10     1   ar
    26     9     4   ar
    27    16    11   ar
@<TRIPOS>MOLECULE
*****
 24 27 0 0 0
SMALL
GASTEIGER

@<TRIPOS>ATOM
      1 C         139.2898  140.1828  167.9555 C.ar    1  UNL1       -0.0207
      2 C         140.1067  141.2657  167.3152 C.ar    1  UNL1       -0.0027
      3 C         140.5048  141.1516  165.8736 C.ar    1  UNL1        0.0188
      4 C         140.0861  139.9548  165.0722 C.ar    1  UNL1        0.0812
      5 N         140.4843  139.8408  163.6305 N.ar    1  UNL1       -0.2454
      6 C         140.0656  138.6439  162.8292 C.ar    1  UNL1        0.0813
      7 C         139.2486  137.5610  163.4696 C.ar    1  UNL1        0.0191
      8 C         138.8505  137.6750  164.9112 C.ar    1  UNL1        0.0030
      9 C         139.2692  138.8719  165.7126 C.ar    1  UNL1        0.0174
     10 C         138.8711  138.9859  167.1542 C.ar    1  UNL1       -0.0027
     11 C         140.4637  138.5299  161.3875 C.ar    1  UNL1        0.0207
     12 C         141.8904  138.2429  161.0238 C.ar    1  UNL1        0.0222
     13 C         142.2886  138.1289  159.5822 C.ar    1  UNL1        0.0989
     14 N         141.2600  138.3018  158.5041 N.ar    1  UNL1       -0.2423
     15 C         139.8334  138.5888  158.8677 C.ar    1  UNL1        0.0989
     16 C         139.4352  138.7028  160.3094 C.ar    1  UNL1        0.0222
     17 C         138.8916  140.2968  169.3973 C.3     1  UNL1        0.0437
     18 C         139.9373  140.2379  170.4711 C.3     1  UNL1        0.0768
     19 C         142.7750  139.0243  169.4108 C.3     1  UNL1        0.0173
     20 C         142.5231  140.4436  169.8255 C.3     1  UNL1        0.0576
     21 C         143.5312  141.5543  169.8256 C.3     1  UNL1        0.0174
     22 C         142.8499  142.7987  170.3131 C.3     1  UNL1        0.0187
     23 C         141.4206  142.4569  170.6142 C.3     1  UNL1        0.0721
     24 N         141.2187  141.0014  170.3128 N.3     1  UNL1       -0.2737
@<TRIPOS>BOND
     1    20    19    1
     2    20    21    1
     3    21    22    1
     4    22    23    1
     5    23    24    1
     6    24    18    1
     7    18    17    1
     8    17     1    1
     9     1     2   ar
    10     2     3   ar
    11     3     4   ar
    12     4     5   ar
    13     5     6   ar
    14     6    11    1
    15    11    12   ar
    16    12    13   ar
    17    13    14   ar
    18    14    15   ar
    19    15    16   ar
    20     6     7   ar
    21     7     8   ar
    22     8     9   ar
    23     9    10   ar
    24    24    20    1
    25    10     1   ar
    26     9     4   ar
    27    16    11   ar
@<TRIPOS>MOLECULE
*****
 24 27 0 0 0
SMALL
GASTEIGER

@<TRIPOS>ATOM
      1 C         143.5978  139.5256  162.2594 C.ar    1  UNL1       -0.0207
      2 C         143.1934  140.9658  162.3698 C.ar    1  UNL1       -0.0027
      3 C         142.8564  141.5496  163.7098 C.ar    1  UNL1        0.0188
      4 C         142.9238  140.6932  164.9394 C.ar    1  UNL1        0.0812
      5 N         142.5867  141.2770  166.2795 N.ar    1  UNL1       -0.2454
      6 C         142.6541  140.4206  167.5091 C.ar    1  UNL1        0.0813
      7 C         143.0585  138.9803  167.3987 C.ar    1  UNL1        0.0191
      8 C         143.3955  138.3965  166.0587 C.ar    1  UNL1        0.0030
      9 C         143.3281  139.2530  164.8290 C.ar    1  UNL1        0.0174
     10 C         143.6652  138.6692  163.4891 C.ar    1  UNL1       -0.0027
     11 C         142.3171  141.0043  168.8491 C.ar    1  UNL1        0.0207
     12 C         142.8813  142.3349  169.2509 C.ar    1  UNL1        0.0222
     13 C         142.5443  142.9187  170.5908 C.ar    1  UNL1        0.0989
     14 N         141.6431  142.1719  171.5291 N.ar    1  UNL1       -0.2423
     15 C         141.0790  140.8414  171.1273 C.ar    1  UNL1        0.0989
     16 C         141.4160  140.2576  169.7873 C.ar    1  UNL1        0.0222
     17 C         143.9348  138.9418  160.9194 C.3     1  UNL1        0.0437
     18 C         143.0021  137.9613  160.2725 C.3     1  UNL1        0.0768
     19 C         140.3256  137.8897  162.1382 C.3     1  UNL1        0.0173
     20 C         140.3968  138.3621  160.7163 C.3     1  UNL1        0.0576
     21 C         139.2502  138.8845  159.9023 C.3     1  UNL1        0.0174
     22 C         139.7718  139.2402  158.5416 C.3     1  UNL1        0.0187
     23 C         141.2408  138.9377  158.5147 C.3     1  UNL1        0.0721
     24 N         141.6270  138.3950  159.8587 N.3     1  UNL1       -0.2737
@<TRIPOS>BOND
     1    20    19    1
     2    20    21    1
     3    21    22    1
     4    22    23    1
     5    23    24    1
     6    24    18    1
     7    18    17    1
     8    17     1    1
     9     1     2   ar
    10     2     3   ar
    11     3     4   ar
    12     4     5   ar
    13     5     6   ar
    14     6    11    1
    15    11    12   ar
    16    12    13   ar
    17    13    14   ar
    18    14    15   ar
    19    15    16   ar
    20     6     7   ar
    21     7     8   ar
    22     8     9   ar
    23     9    10   ar
    24    24    20    1
    25    10     1   ar
    26     9     4   ar
    27    16    11   ar
@<TRIPOS>MOLECULE
*****
 24 27 0 0 0
SMALL
GASTEIGER

@<TRIPOS>ATOM
      1 C         142.0942  140.0491  167.3219 C.ar    1  UNL1       -0.0207
      2 C         140.8411  139.5921  166.6357 C.ar    1  UNL1       -0.0027
      3 C         140.3581  140.3019  165.4057 C.ar    1  UNL1        0.0188
      4 C         141.1282  141.4687  164.8620 C.ar    1  UNL1        0.0812
      5 N         140.6451  142.1785  163.6319 N.ar    1  UNL1       -0.2454
      6 C         141.4151  143.3453  163.0882 C.ar    1  UNL1        0.0813
      7 C         142.6682  143.8022  163.7745 C.ar    1  UNL1        0.0191
      8 C         143.1513  143.0924  165.0044 C.ar    1  UNL1        0.0030
      9 C         142.3812  141.9257  165.5482 C.ar    1  UNL1        0.0174
     10 C         142.8643  141.2159  166.7781 C.ar    1  UNL1       -0.0027
     11 C         140.9321  144.0551  161.8582 C.ar    1  UNL1        0.0207
     12 C         140.3995  145.4537  161.9598 C.ar    1  UNL1        0.0222
     13 C         139.9164  146.1635  160.7299 C.ar    1  UNL1        0.0989
     14 N         139.9660  145.4747  159.3983 N.ar    1  UNL1       -0.2423
     15 C         140.4986  144.0762  159.2966 C.ar    1  UNL1        0.0989
     16 C         140.9816  143.3663  160.5266 C.ar    1  UNL1        0.0222
     17 C         142.5773  139.3393  168.5519 C.3     1  UNL1        0.0437
     18 C         142.3712  139.9563  169.9035 C.3     1  UNL1        0.0768
     19 C         139.1506  140.4824  169.9089 C.3     1  UNL1        0.0173
     20 C         140.2156  141.5321  170.0264 C.3     1  UNL1        0.0576
     21 C         139.9873  143.0080  170.1671 C.3     1  UNL1        0.0174
     22 C         141.3266  143.6783  170.2516 C.3     1  UNL1        0.0187
     23 C         142.3827  142.6166  170.1631 C.3     1  UNL1        0.0721
     24 N         141.6960  141.2903  170.0240 N.3     1  UNL1       -0.2737
@<TRIPOS>BOND
     1    20    19    1
     2    20    21    1
     3    21    22    1
     4    22    23    1
     5    23    24    1
     6    24    18    1
     7    18    17    1
     8    17     1    1
     9     1     2   ar
    10     2     3   ar
    11     3     4   ar
    12     4     5   ar
    13     5     6   ar
    14     6    11    1
    15    11    12   ar
    16    12    13   ar
    17    13    14   ar
    18    14    15   ar
    19    15    16   ar
    20     6     7   ar
    21     7     8   ar
    22     8     9   ar
    23     9    10   ar
    24    24    20    1
    25    10     1   ar
    26     9     4   ar
    27    16    11   ar
@<TRIPOS>MOLECULE
*****
 24 27 0 0 0
SMALL
GASTEIGER

@<TRIPOS>ATOM
      1 C         140.5468  144.7470  162.4648 C.ar    1  UNL1       -0.0207
      2 C         139.2646  144.9872  163.2053 C.ar    1  UNL1       -0.0027
      3 C         139.0973  144.4687  164.6028 C.ar    1  UNL1        0.0188
      4 C         140.2120  143.7101  165.2599 C.ar    1  UNL1        0.0812
      5 N         140.0446  143.1916  166.6575 N.ar    1  UNL1       -0.2454
      6 C         141.1594  142.4330  167.3146 C.ar    1  UNL1        0.0813
      7 C         142.4416  142.1928  166.5740 C.ar    1  UNL1        0.0191
      8 C         142.6090  142.7113  165.1765 C.ar    1  UNL1        0.0030
      9 C         141.4942  143.4699  164.5194 C.ar    1  UNL1        0.0174
     10 C         141.6616  143.9883  163.1219 C.ar    1  UNL1       -0.0027
     11 C         140.9920  141.9146  168.7121 C.ar    1  UNL1        0.0207
     12 C         141.8297  142.4724  169.8244 C.ar    1  UNL1        0.0222
     13 C         141.6623  141.9540  171.2219 C.ar    1  UNL1        0.0989
     14 N         140.6573  140.8777  171.5073 N.ar    1  UNL1       -0.2423
     15 C         139.8196  140.3198  170.3951 C.ar    1  UNL1        0.0989
     16 C         139.9869  140.8383  168.9975 C.ar    1  UNL1        0.0222
     17 C         140.7142  145.2654  161.0672 C.3     1  UNL1        0.0437
     18 C         140.2795  144.4295  159.9001 C.3     1  UNL1        0.0768
     19 C         142.2847  141.8607  160.0733 C.3     1  UNL1        0.0173
     20 C         140.7899  141.8218  160.1910 C.3     1  UNL1        0.0576
     21 C         139.9542  140.5953  160.4090 C.3     1  UNL1        0.0174
     22 C         138.5160  141.0181  160.4641 C.3     1  UNL1        0.0187
     23 C         138.4629  142.5059  160.2802 C.3     1  UNL1        0.0721
     24 N         139.8682  143.0025  160.1114 N.3     1  UNL1       -0.2737
@<TRIPOS>BOND
     1    20    19    1
     2    20    21    1
     3    21    22    1
     4    22    23    1
     5    23    24    1
     6    24    18    1
     7    18    17    1
     8    17     1    1
     9     1     2   ar
    10     2     3   ar
    11     3     4   ar
    12     4     5   ar
    13     5     6   ar
    14     6    11    1
    15    11    12   ar
    16    12    13   ar
    17    13    14   ar
    18    14    15   ar
    19    15    16   ar
    20     6     7   ar
    21     7     8   ar
    22     8     9   ar
    23     9    10   ar
    24    24    20    1
    25    10     1   ar
    26     9     4   ar
    27    16    11   ar
@<TRIPOS>MOLECULE
*****
 24 27 0 0 0
SMALL
GASTEIGER

@<TRIPOS>ATOM
      1 C         142.7035  138.4348  165.2188 C.ar    1  UNL1       -0.0207
      2 C         141.5409  137.5695  164.8324 C.ar    1  UNL1       -0.0027
      3 C         141.2380  137.3230  163.3842 C.ar    1  UNL1        0.0188
      4 C         142.0978  137.9420  162.3222 C.ar    1  UNL1        0.0812
      5 N         141.7949  137.6955  160.8739 N.ar    1  UNL1       -0.2454
      6 C         142.6547  138.3144  159.8120 C.ar    1  UNL1        0.0813
      7 C         143.8174  139.1798  160.1984 C.ar    1  UNL1        0.0191
      8 C         144.1203  139.4263  161.6467 C.ar    1  UNL1        0.0030
      9 C         143.2605  138.8073  162.7086 C.ar    1  UNL1        0.0174
     10 C         143.5633  139.0538  164.1568 C.ar    1  UNL1       -0.0027
     11 C         142.3518  138.0680  158.3637 C.ar    1  UNL1        0.0207
     12 C         141.6285  139.1085  157.5611 C.ar    1  UNL1        0.0222
     13 C         141.3256  138.8621  156.1129 C.ar    1  UNL1        0.0989
     14 N         141.7460  137.5751  155.4672 N.ar    1  UNL1       -0.2423
     15 C         142.4693  136.5346  156.2697 C.ar    1  UNL1        0.0989
     16 C         142.7722  136.7810  157.7180 C.ar    1  UNL1        0.0222
     17 C         143.0065  138.6813  166.6671 C.3     1  UNL1        0.0437
     18 C         142.6277  139.9870  167.3009 C.3     1  UNL1        0.0768
     19 C         139.4515  140.2203  166.5892 C.3     1  UNL1        0.0173
     20 C         140.0437  140.1484  167.9654 C.3     1  UNL1        0.0576
     21 C         139.2799  140.1712  169.2562 C.3     1  UNL1        0.0174
     22 C         140.2678  140.0781  170.3811 C.3     1  UNL1        0.0187
     23 C         141.6422  139.9977  169.7855 C.3     1  UNL1        0.0721
     24 N         141.5036  140.0412  168.2926 N.3     1  UNL1       -0.2737
@<TRIPOS>BOND
     1    20    19    1
     2    20    21    1
     3    21    22    1
     4    22    23    1
     5    23    24    1
     6    24    18    1
     7    18    17    1
     8    17     1    1
     9     1     2   ar
    10     2     3   ar
    11     3     4   ar
    12     4     5   ar
    13     5     6   ar
    14     6    11    1
    15    11    12   ar
    16    12    13   ar
    17    13    14   ar
    18    14    15   ar
    19    15    16   ar
    20     6     7   ar
    21     7     8   ar
    22     8     9   ar
    23     9    10   ar
    24    24    20    1
    25    10     1   ar
    26     9     4   ar
    27    16    11   ar
@<TRIPOS>MOLECULE
*****
 24 27 0 0 0
SMALL
GASTEIGER

@<TRIPOS>ATOM
      1 C         142.1191  139.1790  168.2665 C.ar    1  UNL1       -0.0207
      2 C         143.1433  138.8501  167.2211 C.ar    1  UNL1       -0.0027
      3 C         142.7615  138.8514  165.7705 C.ar    1  UNL1        0.0188
      4 C         141.3555  139.1817  165.3653 C.ar    1  UNL1        0.0812
      5 N         140.9738  139.1829  163.9147 N.ar    1  UNL1       -0.2454
      6 C         139.5678  139.5132  163.5094 C.ar    1  UNL1        0.0813
      7 C         138.5436  139.8421  164.5549 C.ar    1  UNL1        0.0191
      8 C         138.9254  139.8408  166.0054 C.ar    1  UNL1        0.0030
      9 C         140.3313  139.5106  166.4107 C.ar    1  UNL1        0.0174
     10 C         140.7131  139.5093  167.8612 C.ar    1  UNL1       -0.0027
     11 C         139.1861  139.5145  162.0589 C.ar    1  UNL1        0.0207
     12 C         140.1606  139.0305  161.0263 C.ar    1  UNL1        0.0222
     13 C         139.7789  139.0318  159.5758 C.ar    1  UNL1        0.0989
     14 N         138.4225  139.5171  159.1576 N.ar    1  UNL1       -0.2423
     15 C         137.4480  140.0011  160.1900 C.ar    1  UNL1        0.0989
     16 C         137.8297  139.9998  161.6407 C.ar    1  UNL1        0.0222
     17 C         142.5008  139.1778  169.7171 C.3     1  UNL1        0.0437
     18 C         142.7165  140.4759  170.4370 C.3     1  UNL1        0.0768
     19 C         142.7184  142.6534  168.0065 C.3     1  UNL1        0.0173
     20 C         141.7422  142.6029  169.1441 C.3     1  UNL1        0.0576
     21 C         140.5955  143.5444  169.3644 C.3     1  UNL1        0.0174
     22 C         139.8858  143.1254  170.6178 C.3     1  UNL1        0.0187
     23 C         140.5940  141.9249  171.1721 C.3     1  UNL1        0.0721
     24 N         141.7413  141.6020  170.2614 N.3     1  UNL1       -0.2737
@<TRIPOS>BOND
     1    20    19    1
     2    20    21    1
     3    21    22    1
     4    22    23    1
     5    23    24    1
     6    24    18    1
     7    18    17    1
     8    17     1    1
     9     1     2   ar
    10     2     3   ar
    11     3     4   ar
    12     4     5   ar
    13     5     6   ar
    14     6    11    1
    15    11    12   ar
    16    12    13   ar
    17    13    14   ar
    18    14    15   ar
    19    15    16   ar
    20     6     7   ar
    21     7     8   ar
    22     8     9   ar
    23     9    10   ar
    24    24    20    1
    25    10     1   ar
    26     9     4   ar
    27    16    11   ar
@<TRIPOS>MOLECULE
*****
 24 27 0 0 0
SMALL
GASTEIGER

@<TRIPOS>ATOM
      1 C         139.1003  142.7591  161.8661 C.ar    1  UNL1       -0.0207
      2 C         137.9676  143.0644  162.8008 C.ar    1  UNL1       -0.0027
      3 C         138.1996  143.0727  164.2827 C.ar    1  UNL1        0.0188
      4 C         139.5643  142.7756  164.8298 C.ar    1  UNL1        0.0812
      5 N         139.7963  142.7838  166.3118 N.ar    1  UNL1       -0.2454
      6 C         141.1610  142.4867  166.8590 C.ar    1  UNL1        0.0813
      7 C         142.2937  142.1814  165.9241 C.ar    1  UNL1        0.0191
      8 C         142.0617  142.1732  164.4422 C.ar    1  UNL1        0.0030
      9 C         140.6970  142.4702  163.8951 C.ar    1  UNL1        0.0174
     10 C         140.4649  142.4620  162.4132 C.ar    1  UNL1       -0.0027
     11 C         141.3930  142.4950  168.3409 C.ar    1  UNL1        0.0207
     12 C         140.2256  142.4913  169.2828 C.ar    1  UNL1        0.0222
     13 C         140.4576  142.4996  170.7647 C.ar    1  UNL1        0.0989
     14 N         141.8570  142.5115  171.3047 N.ar    1  UNL1       -0.2423
     15 C         143.0244  142.5151  170.3628 C.ar    1  UNL1        0.0989
     16 C         142.7924  142.5069  168.8809 C.ar    1  UNL1        0.0222
     17 C         138.8683  142.7508  160.3841 C.3     1  UNL1        0.0437
     18 C         138.4911  141.4751  159.6911 C.3     1  UNL1        0.0768
     19 C         141.0699  139.4893  159.9268 C.3     1  UNL1        0.0173
     20 C         139.7225  139.2617  160.5453 C.3     1  UNL1        0.0576
     21 C         139.3238  138.0814  161.3807 C.3     1  UNL1        0.0174
     22 C         137.8920  138.2647  161.7887 C.3     1  UNL1        0.0187
     23 C         137.4058  139.5584  161.2054 C.3     1  UNL1        0.0721
     24 N         138.5372  140.1745  160.4369 N.3     1  UNL1       -0.2737
@<TRIPOS>BOND
     1    20    19    1
     2    20    21    1
     3    21    22    1
     4    22    23    1
     5    23    24    1
     6    24    18    1
     7    18    17    1
     8    17     1    1
     9     1     2   ar
    10     2     3   ar
    11     3     4   ar
    12     4     5   ar
    13     5     6   ar
    14     6    11    1
    15    11    12   ar
    16    12    13   ar
    17    13    14   ar
    18    14    15   ar
    19    15    16   ar
    20     6     7   ar
    21     7     8   ar
    22     8     9   ar
    23     9    10   ar
    24    24    20    1
    25    10     1   ar
    26     9     4   ar
    27    16    11   ar
