@<TRIPOS>MOLECULE
*****
 33 35 0 0 0
SMALL
GASTEIGER

@<TRIPOS>ATOM
      1 C         139.6575  140.7797  166.0102 C.ar    1  UNL1        0.1079
      2 N         140.6599  141.7487  166.5637 N.ar    1  UNL1       -0.1682
      3 N         140.8587  141.4311  168.0161 N.ar    1  UNL1       -0.2417
      4 C         139.9792  140.2657  168.3604 C.ar    1  UNL1        0.1279
      5 N         139.8625  139.6169  169.7077 N.pl3   1  UNL1       -0.3427
      6 C         139.2368  139.8631  167.1207 C.ar    1  UNL1        0.1031
      7 H         140.3939  139.9548  170.4645 H       1  UNL1        0.1437
      8 H         139.2545  138.8532  169.8353 H       1  UNL1        0.1437
      9 C         138.4972  139.9253  159.2891 C.ar    1  UNL1        0.1386
     10 C         139.8107  139.2944  159.6447 C.ar    1  UNL1        0.0369
     11 C         140.3055  139.3390  161.0600 C.ar    1  UNL1        0.0031
     12 C         139.4867  140.0147  162.1198 C.ar    1  UNL1        0.0002
     13 C         139.9815  140.0594  163.5351 C.ar    1  UNL1        0.0016
     14 C         139.1627  140.7350  164.5949 C.ar    1  UNL1        0.0196
     15 C         137.8491  141.3660  164.2393 C.ar    1  UNL1        0.0016
     16 C         137.3544  141.3213  162.8240 C.ar    1  UNL1        0.0001
     17 C         138.1732  140.6456  161.7642 C.ar    1  UNL1        0.0030
     18 C         137.6784  140.6010  160.3489 C.ar    1  UNL1        0.0369
     19 O         138.0024  139.8807  157.8738 O.3     1  UNL1       -0.4755
     20 C         136.5785  141.0924  156.0699 C.3     1  UNL1        0.0512
     21 C         137.5775  141.1450  157.1875 C.3     1  UNL1        0.2055
     22 C         138.2475  138.7411  167.0107 C.2     1  UNL1        0.2470
     23 N         138.2167  137.8863  165.7785 N.am    1  UNL1       -0.3252
     24 O         137.2888  138.4737  168.1331 O.2     1  UNL1       -0.2702
     25 H         138.8459  138.0617  165.0418 H       1  UNL1        0.1453
     26 H         137.5673  137.1498  165.7064 H       1  UNL1        0.1453
     27 C         141.7758  142.1521  168.9588 C.3     1  UNL1        0.0903
     28 C         142.8736  141.1836  168.6317 C.3     1  UNL1        0.0246
     29 C         140.6781  143.1207  169.2860 C.3     1  UNL1        0.0246
     30 C         142.6930  142.8733  169.9016 C.3     1  UNL1        0.0543
     31 C         144.1479  142.5123  169.9556 C.3     1  UNL1        0.1391
     32 O         145.1381  143.4745  170.5420 O.3     1  UNL1       -0.3819
     33 H         145.1880  144.2668  169.9847 H       1  UNL1        0.2104
@<TRIPOS>BOND
     1    20    21    1
     2    21    19    1
     3    19     9    1
     4     9    10   ar
     5    10    11   ar
     6    11    12   ar
     7    12    13   ar
     8    13    14   ar
     9    14     1    1
    10     1     2   ar
    11     2     3   ar
    12     3    27    1
    13    27    28    1
    14    27    29    1
    15    27    30    1
    16    30    31    1
    17    31    32    1
    18     3     4   ar
    19     4     5    1
    20     4     6   ar
    21     6    22    1
    22    22    23   am
    23    22    24    2
    24    14    15   ar
    25    15    16   ar
    26    16    17   ar
    27    17    18   ar
    28    18     9   ar
    29    17    12   ar
    30     6     1   ar
    31    32    33    1
    32     5     7    1
    33     5     8    1
    34    23    25    1
    35    23    26    1
@<TRIPOS>MOLECULE
*****
 33 35 0 0 0
SMALL
GASTEIGER

@<TRIPOS>ATOM
      1 C         140.6830  140.3508  165.7540 C.ar    1  UNL1        0.1079
      2 N         141.4473  141.3126  166.6147 N.ar    1  UNL1       -0.1682
      3 N         140.8725  141.2537  167.9989 N.ar    1  UNL1       -0.2417
      4 C         139.7528  140.2556  167.9937 C.ar    1  UNL1        0.1279
      5 N         138.9000  139.8811  169.1695 N.pl3   1  UNL1       -0.3427
      6 C         139.6357  139.6975  166.6063 C.ar    1  UNL1        0.1031
      7 H         139.0545  140.3050  170.0446 H       1  UNL1        0.1437
      8 H         138.1857  139.2116  169.0661 H       1  UNL1        0.1437
      9 C         142.7767  138.4123  159.5004 C.ar    1  UNL1        0.1386
     10 C         143.6670  137.7859  160.5323 C.ar    1  UNL1        0.0369
     11 C         143.4264  138.0483  161.9894 C.ar    1  UNL1        0.0031
     12 C         142.2954  138.9371  162.4146 C.ar    1  UNL1        0.0002
     13 C         142.0547  139.1995  163.8717 C.ar    1  UNL1        0.0016
     14 C         140.9237  140.0884  164.2969 C.ar    1  UNL1        0.0196
     15 C         140.0333  140.7148  163.2649 C.ar    1  UNL1        0.0016
     16 C         140.2740  140.4524  161.8078 C.ar    1  UNL1        0.0001
     17 C         141.4051  139.5635  161.3826 C.ar    1  UNL1        0.0030
     18 C         141.6458  139.3011  159.9255 C.ar    1  UNL1        0.0369
     19 O         143.0174  138.1498  158.0432 O.3     1  UNL1       -0.4755
     20 C         143.2564  135.9584  156.6683 C.3     1  UNL1        0.0512
     21 C         142.3939  136.9559  157.3832 C.3     1  UNL1        0.2055
     22 C         138.6453  138.6671  166.1512 C.2     1  UNL1        0.2470
     23 N         139.0030  137.7203  165.0441 N.am    1  UNL1       -0.3252
     24 O         137.2968  138.5834  166.8030 O.2     1  UNL1       -0.2702
     25 H         139.8880  137.7751  164.6162 H       1  UNL1        0.1453
     26 H         138.3529  137.0440  164.7454 H       1  UNL1        0.1453
     27 C         141.3358  142.0527  169.1808 C.3     1  UNL1        0.0903
     28 C         142.3220  140.9754  169.5225 C.3     1  UNL1        0.0246
     29 C         140.3496  143.1301  168.8390 C.3     1  UNL1        0.0246
     30 C         141.7991  142.8518  170.3626 C.3     1  UNL1        0.0543
     31 C         143.2581  143.1519  170.5397 C.3     1  UNL1        0.1391
     32 O         143.6897  144.2714  171.4399 O.3     1  UNL1       -0.3819
     33 H         143.3939  145.1173  171.0686 H       1  UNL1        0.2104
@<TRIPOS>BOND
     1    20    21    1
     2    21    19    1
     3    19     9    1
     4     9    10   ar
     5    10    11   ar
     6    11    12   ar
     7    12    13   ar
     8    13    14   ar
     9    14     1    1
    10     1     2   ar
    11     2     3   ar
    12     3    27    1
    13    27    28    1
    14    27    29    1
    15    27    30    1
    16    30    31    1
    17    31    32    1
    18     3     4   ar
    19     4     5    1
    20     4     6   ar
    21     6    22    1
    22    22    23   am
    23    22    24    2
    24    14    15   ar
    25    15    16   ar
    26    16    17   ar
    27    17    18   ar
    28    18     9   ar
    29    17    12   ar
    30     6     1   ar
    31    32    33    1
    32     5     7    1
    33     5     8    1
    34    23    25    1
    35    23    26    1
@<TRIPOS>MOLECULE
*****
 33 35 0 0 0
SMALL
GASTEIGER

@<TRIPOS>ATOM
      1 C         140.2890  142.6444  165.2571 C.ar    1  UNL1        0.1079
      2 N         141.1340  142.9736  166.4519 N.ar    1  UNL1       -0.1682
      3 N         140.8337  141.9678  167.5235 N.ar    1  UNL1       -0.2417
      4 C         139.8030  141.0170  166.9910 C.ar    1  UNL1        0.1279
      5 N         139.2125  139.8525  167.7295 N.pl3   1  UNL1       -0.3427
      6 C         139.4663  141.4351  165.5903 C.ar    1  UNL1        0.1031
      7 H         139.4991  139.6575  168.6509 H       1  UNL1        0.1437
      8 H         138.5385  139.2832  167.2927 H       1  UNL1        0.1437
      9 C         141.1139  145.2161  158.9361 C.ar    1  UNL1        0.1386
     10 C         142.0341  144.0450  159.1137 C.ar    1  UNL1        0.0369
     11 C         142.0532  143.2964  160.4134 C.ar    1  UNL1        0.0031
     12 C         141.1520  143.7190  161.5355 C.ar    1  UNL1        0.0002
     13 C         141.1711  142.9704  162.8353 C.ar    1  UNL1        0.0016
     14 C         140.2699  143.3929  163.9574 C.ar    1  UNL1        0.0196
     15 C         139.3496  144.5641  163.7799 C.ar    1  UNL1        0.0016
     16 C         139.3305  145.3127  162.4802 C.ar    1  UNL1        0.0001
     17 C         140.2318  144.8901  161.3580 C.ar    1  UNL1        0.0030
     18 C         140.2127  145.6386  160.0582 C.ar    1  UNL1        0.0369
     19 O         141.0948  145.9647  157.6364 O.3     1  UNL1       -0.4755
     20 C         139.2575  147.1199  156.2082 C.3     1  UNL1        0.0512
     21 C         139.9001  145.8708  156.7343 C.3     1  UNL1        0.2055
     22 C         138.4802  140.7621  164.6823 C.2     1  UNL1        0.2470
     23 N         137.3718  141.5569  164.0578 N.am    1  UNL1       -0.3252
     24 O         138.6023  139.2942  164.3985 O.2     1  UNL1       -0.2702
     25 H         137.2916  142.5203  164.2440 H       1  UNL1        0.1453
     26 H         136.7246  141.1151  163.4618 H       1  UNL1        0.1453
     27 C         141.4549  141.9211  168.8879 C.3     1  UNL1        0.0903
     28 C         140.4199  142.8826  169.3922 C.3     1  UNL1        0.0246
     29 C         142.4899  140.9595  168.3837 C.3     1  UNL1        0.0246
     30 C         142.0762  141.8743  170.2524 C.3     1  UNL1        0.0543
     31 C         141.8908  140.6647  171.1199 C.3     1  UNL1        0.1391
     32 O         140.7256  140.5884  172.0615 O.3     1  UNL1       -0.3819
     33 H         140.8196  141.2674  172.7478 H       1  UNL1        0.2104
@<TRIPOS>BOND
     1    20    21    1
     2    21    19    1
     3    19     9    1
     4     9    10   ar
     5    10    11   ar
     6    11    12   ar
     7    12    13   ar
     8    13    14   ar
     9    14     1    1
    10     1     2   ar
    11     2     3   ar
    12     3    27    1
    13    27    28    1
    14    27    29    1
    15    27    30    1
    16    30    31    1
    17    31    32    1
    18     3     4   ar
    19     4     5    1
    20     4     6   ar
    21     6    22    1
    22    22    23   am
    23    22    24    2
    24    14    15   ar
    25    15    16   ar
    26    16    17   ar
    27    17    18   ar
    28    18     9   ar
    29    17    12   ar
    30     6     1   ar
    31    32    33    1
    32     5     7    1
    33     5     8    1
    34    23    25    1
    35    23    26    1
@<TRIPOS>MOLECULE
*****
 33 35 0 0 0
SMALL
GASTEIGER

@<TRIPOS>ATOM
      1 C         140.0590  141.8042  164.7894 C.ar    1  UNL1        0.1079
      2 N         140.8909  141.8185  166.0374 N.ar    1  UNL1       -0.1682
      3 N         140.4098  140.7114  166.9280 N.ar    1  UNL1       -0.2417
      4 C         139.2805  140.0129  166.2303 C.ar    1  UNL1        0.1279
      5 N         138.5043  138.8443  166.7611 N.pl3   1  UNL1       -0.3427
      6 C         139.0637  140.6882  164.9085 C.ar    1  UNL1        0.1031
      7 H         138.7224  138.4689  167.6447 H       1  UNL1        0.1437
      8 H         137.7767  138.4527  166.2259 H       1  UNL1        0.1437
      9 C         141.4002  145.1365  158.9287 C.ar    1  UNL1        0.1386
     10 C         142.0465  143.7837  158.8834 C.ar    1  UNL1        0.0369
     11 C         141.9076  142.8467  160.0464 C.ar    1  UNL1        0.0031
     12 C         141.1223  143.2624  161.2548 C.ar    1  UNL1        0.0002
     13 C         140.9833  142.3254  162.4179 C.ar    1  UNL1        0.0016
     14 C         140.1980  142.7412  163.6263 C.ar    1  UNL1        0.0196
     15 C         139.5516  144.0940  163.6717 C.ar    1  UNL1        0.0016
     16 C         139.6905  145.0311  162.5087 C.ar    1  UNL1        0.0001
     17 C         140.4759  144.6152  161.3002 C.ar    1  UNL1        0.0030
     18 C         140.6148  145.5523  160.1372 C.ar    1  UNL1        0.0369
     19 O         141.5391  146.0735  157.7657 O.3     1  UNL1       -0.4755
     20 C         139.6122  145.0990  156.3209 C.3     1  UNL1        0.0512
     21 C         140.3878  146.2792  156.8266 C.3     1  UNL1        0.2055
     22 C         138.0326  140.3135  163.8856 C.2     1  UNL1        0.2470
     23 N         136.9057  141.2541  163.5770 N.am    1  UNL1       -0.3252
     24 O         138.1284  138.9979  163.1712 O.2     1  UNL1       -0.2702
     25 H         136.8428  142.1175  164.0458 H       1  UNL1        0.1453
     26 H         136.2290  141.0081  162.9056 H       1  UNL1        0.1453
     27 C         140.9611  140.3639  168.2789 C.3     1  UNL1        0.0903
     28 C         142.0607  139.5782  167.6282 C.3     1  UNL1        0.0246
     29 C         139.8615  141.1497  168.9298 C.3     1  UNL1        0.0246
     30 C         141.5124  140.0164  169.6300 C.3     1  UNL1        0.0543
     31 C         141.6174  141.0714  170.6912 C.3     1  UNL1        0.1391
     32 O         142.1852  140.7281  172.0364 O.3     1  UNL1       -0.3819
     33 H         141.5953  140.1033  172.4865 H       1  UNL1        0.2104
@<TRIPOS>BOND
     1    20    21    1
     2    21    19    1
     3    19     9    1
     4     9    10   ar
     5    10    11   ar
     6    11    12   ar
     7    12    13   ar
     8    13    14   ar
     9    14     1    1
    10     1     2   ar
    11     2     3   ar
    12     3    27    1
    13    27    28    1
    14    27    29    1
    15    27    30    1
    16    30    31    1
    17    31    32    1
    18     3     4   ar
    19     4     5    1
    20     4     6   ar
    21     6    22    1
    22    22    23   am
    23    22    24    2
    24    14    15   ar
    25    15    16   ar
    26    16    17   ar
    27    17    18   ar
    28    18     9   ar
    29    17    12   ar
    30     6     1   ar
    31    32    33    1
    32     5     7    1
    33     5     8    1
    34    23    25    1
    35    23    26    1
@<TRIPOS>MOLECULE
*****
 33 35 0 0 0
SMALL
GASTEIGER

@<TRIPOS>ATOM
      1 C         140.6654  139.7729  166.3666 C.ar    1  UNL1        0.1079
      2 N         141.6425  140.4800  167.2583 N.ar    1  UNL1       -0.1682
      3 N         140.9773  140.7127  168.5825 N.ar    1  UNL1       -0.2417
      4 C         139.5889  140.1495  168.5091 C.ar    1  UNL1        0.1279
      5 N         138.5719  140.1645  169.6115 N.pl3   1  UNL1       -0.3427
      6 C         139.3961  139.5686  167.1396 C.ar    1  UNL1        0.1031
      7 H         138.7936  140.5714  170.4802 H       1  UNL1        0.1437
      8 H         137.6828  139.7675  169.4665 H       1  UNL1        0.1437
      9 C         141.6192  139.0733  159.5953 C.ar    1  UNL1        0.1386
     10 C         141.3309  140.5125  159.9044 C.ar    1  UNL1        0.0369
     11 C         141.0825  140.9402  161.3205 C.ar    1  UNL1        0.0031
     12 C         141.1224  139.9288  162.4274 C.ar    1  UNL1        0.0002
     13 C         140.8740  140.3566  163.8435 C.ar    1  UNL1        0.0016
     14 C         140.9138  139.3451  164.9505 C.ar    1  UNL1        0.0196
     15 C         141.2020  137.9058  164.6414 C.ar    1  UNL1        0.0016
     16 C         141.4504  137.4781  163.2253 C.ar    1  UNL1        0.0001
     17 C         141.4106  138.4896  162.1183 C.ar    1  UNL1        0.0030
     18 C         141.6590  138.0619  160.7022 C.ar    1  UNL1        0.0369
     19 O         141.8676  138.6455  158.1792 O.3     1  UNL1       -0.4755
     20 C         142.9863  137.0248  156.4846 C.3     1  UNL1        0.0512
     21 C         142.6605  137.4035  157.8990 C.3     1  UNL1        0.2055
     22 C         138.1526  138.9008  166.6322 C.2     1  UNL1        0.2470
     23 N         137.4193  137.9219  167.5005 N.am    1  UNL1       -0.3252
     24 O         137.6422  139.2119  165.2563 O.2     1  UNL1       -0.2702
     25 H         137.7542  137.7177  168.4035 H       1  UNL1        0.1453
     26 H         136.6030  137.4836  167.1674 H       1  UNL1        0.1453
     27 C         141.5923  141.3898  169.7712 C.3     1  UNL1        0.0903
     28 C         142.1349  140.0726  170.2408 C.3     1  UNL1        0.0246
     29 C         141.0496  142.7071  169.3017 C.3     1  UNL1        0.0246
     30 C         142.2072  142.0670  170.9600 C.3     1  UNL1        0.0543
     31 C         143.1631  143.2061  170.7630 C.3     1  UNL1        0.1391
     32 O         144.5604  142.9390  170.2873 O.3     1  UNL1       -0.3819
     33 H         145.0421  142.4381  170.9640 H       1  UNL1        0.2104
@<TRIPOS>BOND
     1    20    21    1
     2    21    19    1
     3    19     9    1
     4     9    10   ar
     5    10    11   ar
     6    11    12   ar
     7    12    13   ar
     8    13    14   ar
     9    14     1    1
    10     1     2   ar
    11     2     3   ar
    12     3    27    1
    13    27    28    1
    14    27    29    1
    15    27    30    1
    16    30    31    1
    17    31    32    1
    18     3     4   ar
    19     4     5    1
    20     4     6   ar
    21     6    22    1
    22    22    23   am
    23    22    24    2
    24    14    15   ar
    25    15    16   ar
    26    16    17   ar
    27    17    18   ar
    28    18     9   ar
    29    17    12   ar
    30     6     1   ar
    31    32    33    1
    32     5     7    1
    33     5     8    1
    34    23    25    1
    35    23    26    1
@<TRIPOS>MOLECULE
*****
 33 35 0 0 0
SMALL
GASTEIGER

@<TRIPOS>ATOM
      1 C         141.5849  142.4103  165.1113 C.ar    1  UNL1        0.1079
      2 N         140.5055  142.0166  166.0757 N.ar    1  UNL1       -0.1682
      3 N         141.1009  141.9903  167.4522 N.ar    1  UNL1       -0.2417
      4 C         142.5482  142.3676  167.3386 C.ar    1  UNL1        0.1279
      5 N         143.5249  142.4678  168.4726 N.pl3   1  UNL1       -0.3427
      6 C         142.8474  142.6273  165.8918 C.ar    1  UNL1        0.1031
      7 H         143.2320  142.2769  169.3929 H       1  UNL1        0.1437
      8 H         144.4589  142.7245  168.2966 H       1  UNL1        0.1437
      9 C         140.5748  144.3385  158.5912 C.ar    1  UNL1        0.1386
     10 C         140.3435  145.5149  159.4926 C.ar    1  UNL1        0.0369
     11 C         140.4992  145.3645  160.9768 C.ar    1  UNL1        0.0031
     12 C         140.8863  144.0378  161.5598 C.ar    1  UNL1        0.0002
     13 C         141.0420  143.8874  163.0441 C.ar    1  UNL1        0.0016
     14 C         141.4291  142.5607  163.6270 C.ar    1  UNL1        0.0196
     15 C         141.6604  141.3842  162.7256 C.ar    1  UNL1        0.0016
     16 C         141.5047  141.5345  161.2413 C.ar    1  UNL1        0.0001
     17 C         141.1176  142.8614  160.6584 C.ar    1  UNL1        0.0030
     18 C         140.9618  143.0117  159.1741 C.ar    1  UNL1        0.0369
     19 O         140.4190  144.4888  157.1069 O.3     1  UNL1       -0.4755
     20 C         138.2981  143.5229  155.9586 C.3     1  UNL1        0.0512
     21 C         139.7519  143.4077  156.3094 C.3     1  UNL1        0.2055
     22 C         144.1756  143.0326  165.3251 C.2     1  UNL1        0.2470
     23 N         144.7397  142.3046  164.1412 N.am    1  UNL1       -0.3252
     24 O         144.9400  144.1662  165.9423 O.2     1  UNL1       -0.2702
     25 H         144.2381  141.5606  163.7361 H       1  UNL1        0.1453
     26 H         145.6116  142.5707  163.7693 H       1  UNL1        0.1453
     27 C         140.3763  141.6468  168.7198 C.3     1  UNL1        0.0903
     28 C         140.3193  143.1014  169.0815 C.3     1  UNL1        0.0246
     29 C         140.4332  140.1921  168.3582 C.3     1  UNL1        0.0246
     30 C         139.6516  141.3033  169.9874 C.3     1  UNL1        0.0543
     31 C         140.1251  140.1605  170.8359 C.3     1  UNL1        0.1391
     32 O         140.7235  140.4259  172.1855 O.3     1  UNL1       -0.3819
     33 H         141.5593  140.9066  172.0797 H       1  UNL1        0.2104
@<TRIPOS>BOND
     1    20    21    1
     2    21    19    1
     3    19     9    1
     4     9    10   ar
     5    10    11   ar
     6    11    12   ar
     7    12    13   ar
     8    13    14   ar
     9    14     1    1
    10     1     2   ar
    11     2     3   ar
    12     3    27    1
    13    27    28    1
    14    27    29    1
    15    27    30    1
    16    30    31    1
    17    31    32    1
    18     3     4   ar
    19     4     5    1
    20     4     6   ar
    21     6    22    1
    22    22    23   am
    23    22    24    2
    24    14    15   ar
    25    15    16   ar
    26    16    17   ar
    27    17    18   ar
    28    18     9   ar
    29    17    12   ar
    30     6     1   ar
    31    32    33    1
    32     5     7    1
    33     5     8    1
    34    23    25    1
    35    23    26    1
@<TRIPOS>MOLECULE
*****
 33 35 0 0 0
SMALL
GASTEIGER

@<TRIPOS>ATOM
      1 C         140.0456  140.2770  165.2133 C.ar    1  UNL1        0.1079
      2 N         139.5480  141.1473  166.3291 N.ar    1  UNL1       -0.1682
      3 N         140.3963  140.8822  167.5374 N.ar    1  UNL1       -0.2417
      4 C         141.4183  139.8481  167.1684 C.ar    1  UNL1        0.1279
      5 N         142.4720  139.2865  168.0764 N.pl3   1  UNL1       -0.3427
      6 C         141.2016  139.4740  165.7320 C.ar    1  UNL1        0.1031
      7 H         142.5349  139.5969  169.0086 H       1  UNL1        0.1437
      8 H         143.1006  138.6076  167.7401 H       1  UNL1        0.1437
      9 C         138.1527  141.1177  158.6589 C.ar    1  UNL1        0.1386
     10 C         139.0594  142.2445  159.0565 C.ar    1  UNL1        0.0369
     11 C         139.6193  142.3018  160.4469 C.ar    1  UNL1        0.0031
     12 C         139.2726  141.2322  161.4397 C.ar    1  UNL1        0.0002
     13 C         139.8325  141.2894  162.8301 C.ar    1  UNL1        0.0016
     14 C         139.4857  140.2198  163.8229 C.ar    1  UNL1        0.0196
     15 C         138.5790  139.0929  163.4253 C.ar    1  UNL1        0.0016
     16 C         138.0190  139.0357  162.0349 C.ar    1  UNL1        0.0001
     17 C         138.3659  140.1054  161.0421 C.ar    1  UNL1        0.0030
     18 C         137.8059  140.0481  159.6517 C.ar    1  UNL1        0.0369
     19 O         137.5928  141.0605  157.2685 O.3     1  UNL1       -0.4755
     20 C         139.6502  139.7295  156.4051 C.3     1  UNL1        0.0512
     21 C         138.2254  140.1691  156.2413 C.3     1  UNL1        0.2055
     22 C         142.0005  138.4729  164.9515 C.2     1  UNL1        0.2470
     23 N         143.4054  138.7944  164.5356 N.am    1  UNL1       -0.3252
     24 O         141.3945  137.1500  164.5867 O.2     1  UNL1       -0.2702
     25 H         143.8031  139.6626  164.7750 H       1  UNL1        0.1453
     26 H         143.9297  138.1372  164.0233 H       1  UNL1        0.1453
     27 C         140.2486  141.5362  168.8791 C.3     1  UNL1        0.0903
     28 C         141.1458  142.6527  168.4337 C.3     1  UNL1        0.0246
     29 C         139.3513  140.4197  169.3247 C.3     1  UNL1        0.0246
     30 C         140.1009  142.1903  170.2209 C.3     1  UNL1        0.0543
     31 C         140.8546  141.6562  171.4027 C.3     1  UNL1        0.1391
     32 O         142.1380  142.3049  171.8294 O.3     1  UNL1       -0.3819
     33 H         142.8083  142.1801  171.1394 H       1  UNL1        0.2104
@<TRIPOS>BOND
     1    20    21    1
     2    21    19    1
     3    19     9    1
     4     9    10   ar
     5    10    11   ar
     6    11    12   ar
     7    12    13   ar
     8    13    14   ar
     9    14     1    1
    10     1     2   ar
    11     2     3   ar
    12     3    27    1
    13    27    28    1
    14    27    29    1
    15    27    30    1
    16    30    31    1
    17    31    32    1
    18     3     4   ar
    19     4     5    1
    20     4     6   ar
    21     6    22    1
    22    22    23   am
    23    22    24    2
    24    14    15   ar
    25    15    16   ar
    26    16    17   ar
    27    17    18   ar
    28    18     9   ar
    29    17    12   ar
    30     6     1   ar
    31    32    33    1
    32     5     7    1
    33     5     8    1
    34    23    25    1
    35    23    26    1
@<TRIPOS>MOLECULE
*****
 33 35 0 0 0
SMALL
GASTEIGER

@<TRIPOS>ATOM
      1 C         142.5411  140.1318  164.9710 C.ar    1  UNL1        0.1079
      2 N         141.7796  139.5158  166.1071 N.ar    1  UNL1       -0.1682
      3 N         142.0017  140.3610  167.3263 N.ar    1  UNL1       -0.2417
      4 C         142.9004  141.4994  166.9437 C.ar    1  UNL1        0.1279
      5 N         143.3814  142.5882  167.8564 N.pl3   1  UNL1       -0.3427
      6 C         143.2338  141.3578  165.4880 C.ar    1  UNL1        0.1031
      7 H         143.1064  142.5954  168.8017 H       1  UNL1        0.1437
      8 H         143.9720  143.2957  167.5102 H       1  UNL1        0.1437
      9 C         141.6616  138.3596  158.3880 C.ar    1  UNL1        0.1386
     10 C         140.4896  139.1815  158.8360 C.ar    1  UNL1        0.0369
     11 C         140.4311  139.7003  160.2423 C.ar    1  UNL1        0.0031
     12 C         141.5446  139.3972  161.2004 C.ar    1  UNL1        0.0002
     13 C         141.4861  139.9161  162.6066 C.ar    1  UNL1        0.0016
     14 C         142.5996  139.6130  163.5648 C.ar    1  UNL1        0.0196
     15 C         143.7717  138.7911  163.1168 C.ar    1  UNL1        0.0016
     16 C         143.8303  138.2723  161.7106 C.ar    1  UNL1        0.0001
     17 C         142.7166  138.5754  160.7524 C.ar    1  UNL1        0.0030
     18 C         142.7751  138.0566  159.3462 C.ar    1  UNL1        0.0369
     19 O         141.7201  137.8408  156.9818 O.3     1  UNL1       -0.4755
     20 C         139.5262  137.5889  155.6133 C.3     1  UNL1        0.0512
     21 C         140.6106  136.9812  156.4528 C.3     1  UNL1        0.2055
     22 C         144.1066  142.2801  164.6896 C.2     1  UNL1        0.2470
     23 N         145.4432  141.8093  164.1977 N.am    1  UNL1       -0.3252
     24 O         143.6429  143.6734  164.3831 O.2     1  UNL1       -0.2702
     25 H         145.7476  140.8949  164.3988 H       1  UNL1        0.1453
     26 H         146.0160  142.4147  163.6736 H       1  UNL1        0.1453
     27 C         141.4261  140.1117  168.6888 C.3     1  UNL1        0.0903
     28 C         142.6099  139.2569  169.0324 C.3     1  UNL1        0.0246
     29 C         140.2423  140.9665  168.3451 C.3     1  UNL1        0.0246
     30 C         140.8505  139.8624  170.0513 C.3     1  UNL1        0.0543
     31 C         141.0109  140.8895  171.1327 C.3     1  UNL1        0.1391
     32 O         142.1574  140.7927  172.0950 O.3     1  UNL1       -0.3819
     33 H         142.0553  139.9972  172.6406 H       1  UNL1        0.2104
@<TRIPOS>BOND
     1    20    21    1
     2    21    19    1
     3    19     9    1
     4     9    10   ar
     5    10    11   ar
     6    11    12   ar
     7    12    13   ar
     8    13    14   ar
     9    14     1    1
    10     1     2   ar
    11     2     3   ar
    12     3    27    1
    13    27    28    1
    14    27    29    1
    15    27    30    1
    16    30    31    1
    17    31    32    1
    18     3     4   ar
    19     4     5    1
    20     4     6   ar
    21     6    22    1
    22    22    23   am
    23    22    24    2
    24    14    15   ar
    25    15    16   ar
    26    16    17   ar
    27    17    18   ar
    28    18     9   ar
    29    17    12   ar
    30     6     1   ar
    31    32    33    1
    32     5     7    1
    33     5     8    1
    34    23    25    1
    35    23    26    1
@<TRIPOS>MOLECULE
*****
 33 35 0 0 0
SMALL
GASTEIGER

@<TRIPOS>ATOM
      1 C         141.6386  139.7426  165.4755 C.ar    1  UNL1        0.1079
      2 N         142.4582  140.2224  166.6365 N.ar    1  UNL1       -0.1682
      3 N         141.5713  140.2613  167.8456 N.ar    1  UNL1       -0.2417
      4 C         140.2034  139.8055  167.4318 C.ar    1  UNL1        0.1279
      5 N         139.0045  139.6905  168.3258 N.pl3   1  UNL1       -0.3427
      6 C         140.2450  139.4849  165.9670 C.ar    1  UNL1        0.1031
      7 H         139.0769  139.9255  169.2791 H       1  UNL1        0.1437
      8 H         138.1451  139.3800  167.9593 H       1  UNL1        0.1437
      9 C         143.8566  140.1803  158.9841 C.ar    1  UNL1        0.1386
     10 C         143.6337  141.5630  159.5211 C.ar    1  UNL1        0.0369
     11 C         143.1455  141.7520  160.9268 C.ar    1  UNL1        0.0031
     12 C         142.8802  140.5583  161.7954 C.ar    1  UNL1        0.0002
     13 C         142.3921  140.7473  163.2011 C.ar    1  UNL1        0.0016
     14 C         142.1268  139.5536  164.0698 C.ar    1  UNL1        0.0196
     15 C         142.3497  138.1708  163.5328 C.ar    1  UNL1        0.0016
     16 C         142.8379  137.9818  162.1271 C.ar    1  UNL1        0.0001
     17 C         143.1031  139.1756  161.2584 C.ar    1  UNL1        0.0030
     18 C         143.5913  138.9866  159.8528 C.ar    1  UNL1        0.0369
     19 O         144.3448  139.9913  157.5784 O.3     1  UNL1       -0.4755
     20 C         144.6176  141.8149  155.7481 C.3     1  UNL1        0.0512
     21 C         145.1683  141.0585  156.9206 C.3     1  UNL1        0.2055
     22 C         139.0950  138.9930  165.1392 C.2     1  UNL1        0.2470
     23 N         138.7842  137.5266  165.0830 N.am    1  UNL1       -0.3252
     24 O         138.2555  139.9676  164.3673 O.2     1  UNL1       -0.2702
     25 H         139.3351  136.8870  165.5896 H       1  UNL1        0.1453
     26 H         138.0294  137.2039  164.5396 H       1  UNL1        0.1453
     27 C         141.9803  140.6821  169.2259 C.3     1  UNL1        0.0903
     28 C         142.3428  139.2634  169.5511 C.3     1  UNL1        0.0246
     29 C         141.6178  142.1009  168.9008 C.3     1  UNL1        0.0246
     30 C         142.3893  141.1030  170.6064 C.3     1  UNL1        0.0543
     31 C         141.7227  142.2765  171.2611 C.3     1  UNL1        0.1391
     32 O         140.5814  142.0578  172.2095 O.3     1  UNL1       -0.3819
     33 H         139.8250  141.6905  171.7259 H       1  UNL1        0.2104
@<TRIPOS>BOND
     1    20    21    1
     2    21    19    1
     3    19     9    1
     4     9    10   ar
     5    10    11   ar
     6    11    12   ar
     7    12    13   ar
     8    13    14   ar
     9    14     1    1
    10     1     2   ar
    11     2     3   ar
    12     3    27    1
    13    27    28    1
    14    27    29    1
    15    27    30    1
    16    30    31    1
    17    31    32    1
    18     3     4   ar
    19     4     5    1
    20     4     6   ar
    21     6    22    1
    22    22    23   am
    23    22    24    2
    24    14    15   ar
    25    15    16   ar
    26    16    17   ar
    27    17    18   ar
    28    18     9   ar
    29    17    12   ar
    30     6     1   ar
    31    32    33    1
    32     5     7    1
    33     5     8    1
    34    23    25    1
    35    23    26    1
