@<TRIPOS>MOLECULE
*****
 23 25 0 0 0
SMALL
GASTEIGER

@<TRIPOS>ATOM
      1 C         138.8071  144.4950  163.8665 C.3     1  UNL1        0.0896
      2 N         139.0371  143.2693  164.6999 N.3     1  UNL1       -0.2715
      3 C         139.9659  143.3257  165.8764 C.3     1  UNL1        0.0725
      4 C         140.1960  142.1000  166.7099 C.3     1  UNL1        0.0238
      5 C         139.4972  140.8178  166.3669 C.3     1  UNL1        0.0489
      6 C         138.5684  140.7614  165.1904 C.3     1  UNL1        0.0238
      7 C         138.3384  141.9871  164.3570 C.3     1  UNL1        0.0725
      8 C         140.2775  140.3756  167.5693 C.ar    1  UNL1       -0.0204
      9 C         139.6086  140.2952  168.9094 C.ar    1  UNL1       -0.0042
     10 C         140.3887  139.8531  170.1118 C.ar    1  UNL1       -0.0003
     11 C         141.8379  139.4913  169.9740 C.ar    1  UNL1       -0.0000
     12 C         142.5069  139.5717  168.6339 C.ar    1  UNL1       -0.0003
     13 C         141.7266  140.0139  167.4315 C.ar    1  UNL1       -0.0042
     14 C         139.0694  139.3820  166.4415 C.3     1  UNL1        0.1466
     15 O         139.0190  138.5488  165.1952 O.3     1  UNL1       -0.3486
     16 C         140.0877  137.5300  164.9305 C.3     1  UNL1        0.1702
     17 C         141.2348  137.8647  164.0238 C.ar    1  UNL1        0.0269
     18 C         141.1595  137.5287  162.5638 C.ar    1  UNL1        0.0970
     19 N         142.3067  137.8634  161.6572 N.ar    1  UNL1       -0.2421
     20 C         143.5290  138.5340  162.2104 C.ar    1  UNL1        0.1055
     21 C         143.6043  138.8700  163.6704 C.ar    1  UNL1        0.0535
     22 BR        144.8266  139.5406  164.2235 Br      1  UNL1       -0.0474
     23 C         142.4572  138.5353  164.5771 C.ar    1  UNL1        0.0080
@<TRIPOS>BOND
     1     1     2    1
     2     2     3    1
     3     3     4    1
     4     4     5    1
     5     5    14    1
     6    14    15    1
     7    15    16    1
     8    16    17    1
     9    17    18   ar
    10    18    19   ar
    11    19    20   ar
    12    20    21   ar
    13    21    22    1
    14    21    23   ar
    15     5     8    1
    16     8     9   ar
    17     9    10   ar
    18    10    11   ar
    19    11    12   ar
    20    12    13   ar
    21     5     6    1
    22     6     7    1
    23     7     2    1
    24    23    17   ar
    25    13     8   ar
@<TRIPOS>MOLECULE
*****
 23 25 0 0 0
SMALL
GASTEIGER

@<TRIPOS>ATOM
      1 C         144.2443  139.2551  163.4610 C.3     1  UNL1        0.0896
      2 N         143.0612  139.6431  164.2975 N.3     1  UNL1       -0.2715
      3 C         143.2663  140.1854  165.6809 C.3     1  UNL1        0.0725
      4 C         142.0832  140.5735  166.5174 C.3     1  UNL1        0.0238
      5 C         140.6950  140.4191  165.9705 C.3     1  UNL1        0.0489
      6 C         140.4900  139.8768  164.5872 C.3     1  UNL1        0.0238
      7 C         141.6730  139.4887  163.7507 C.3     1  UNL1        0.0725
      8 C         140.3800  140.9750  167.3277 C.ar    1  UNL1       -0.0204
      9 C         140.7394  142.3929  167.6593 C.ar    1  UNL1       -0.0042
     10 C         140.4245  142.9488  169.0164 C.ar    1  UNL1       -0.0003
     11 C         139.7500  142.0866  170.0419 C.ar    1  UNL1       -0.0000
     12 C         139.3906  140.6685  169.7104 C.ar    1  UNL1       -0.0003
     13 C         139.7056  140.1127  168.3532 C.ar    1  UNL1       -0.0042
     14 C         139.1974  140.4578  165.8950 C.3     1  UNL1        0.1466
     15 O         138.5221  141.0683  164.7028 O.3     1  UNL1       -0.3486
     16 C         138.0713  142.4983  164.7468 C.3     1  UNL1        0.1702
     17 C         138.8135  143.5430  163.9671 C.ar    1  UNL1        0.0269
     18 C         138.1059  144.3285  162.9030 C.ar    1  UNL1        0.0970
     19 N         138.8481  145.3731  162.1234 N.ar    1  UNL1       -0.2421
     20 C         140.2979  145.6322  162.4078 C.ar    1  UNL1        0.1055
     21 C         141.0056  144.8468  163.4719 C.ar    1  UNL1        0.0535
     22 BR        142.4553  145.1059  163.7563 Br      1  UNL1       -0.0474
     23 C         140.2634  143.8021  164.2516 C.ar    1  UNL1        0.0080
@<TRIPOS>BOND
     1     1     2    1
     2     2     3    1
     3     3     4    1
     4     4     5    1
     5     5    14    1
     6    14    15    1
     7    15    16    1
     8    16    17    1
     9    17    18   ar
    10    18    19   ar
    11    19    20   ar
    12    20    21   ar
    13    21    22    1
    14    21    23   ar
    15     5     8    1
    16     8     9   ar
    17     9    10   ar
    18    10    11   ar
    19    11    12   ar
    20    12    13   ar
    21     5     6    1
    22     6     7    1
    23     7     2    1
    24    23    17   ar
    25    13     8   ar
@<TRIPOS>MOLECULE
*****
 23 25 0 0 0
SMALL
GASTEIGER

@<TRIPOS>ATOM
      1 C         141.8542  142.0084  171.1299 C.3     1  UNL1        0.0896
      2 N         141.7783  142.1392  169.6375 N.3     1  UNL1       -0.2715
      3 C         140.4485  142.3181  168.9670 C.3     1  UNL1        0.0725
      4 C         140.3726  142.4489  167.4747 C.3     1  UNL1        0.0238
      5 C         141.6264  142.4008  166.6528 C.3     1  UNL1        0.0489
      6 C         142.9562  142.2219  167.3233 C.3     1  UNL1        0.0238
      7 C         143.0321  142.0911  168.8157 C.3     1  UNL1        0.0725
      8 C         140.6094  142.5853  165.5658 C.ar    1  UNL1       -0.0204
      9 C         139.5608  143.6503  165.6926 C.ar    1  UNL1       -0.0042
     10 C         138.5438  143.8348  164.6056 C.ar    1  UNL1       -0.0003
     11 C         138.5754  142.9542  163.3917 C.ar    1  UNL1       -0.0000
     12 C         139.6240  141.8891  163.2648 C.ar    1  UNL1       -0.0003
     13 C         140.6410  141.7046  164.3519 C.ar    1  UNL1       -0.0042
     14 C         142.5271  142.4168  165.4534 C.3     1  UNL1        0.1466
     15 O         143.7907  143.2249  165.4751 O.3     1  UNL1       -0.3486
     16 C         143.9518  144.3900  164.5442 C.3     1  UNL1        0.1702
     17 C         143.1641  144.4456  163.2689 C.ar    1  UNL1        0.0269
     18 C         143.6510  143.7125  162.0541 C.ar    1  UNL1        0.0970
     19 N         142.8632  143.7681  160.7788 N.ar    1  UNL1       -0.2421
     20 C         141.5887  144.5566  160.7183 C.ar    1  UNL1        0.1055
     21 C         141.1018  145.2897  161.9331 C.ar    1  UNL1        0.0535
     22 BR        139.8273  146.0782  161.8725 Br      1  UNL1       -0.0474
     23 C         141.8895  145.2341  163.2084 C.ar    1  UNL1        0.0080
@<TRIPOS>BOND
     1     1     2    1
     2     2     3    1
     3     3     4    1
     4     4     5    1
     5     5    14    1
     6    14    15    1
     7    15    16    1
     8    16    17    1
     9    17    18   ar
    10    18    19   ar
    11    19    20   ar
    12    20    21   ar
    13    21    22    1
    14    21    23   ar
    15     5     8    1
    16     8     9   ar
    17     9    10   ar
    18    10    11   ar
    19    11    12   ar
    20    12    13   ar
    21     5     6    1
    22     6     7    1
    23     7     2    1
    24    23    17   ar
    25    13     8   ar
@<TRIPOS>MOLECULE
*****
 23 25 0 0 0
SMALL
GASTEIGER

@<TRIPOS>ATOM
      1 C         144.8866  142.4476  163.5998 C.3     1  UNL1        0.0896
      2 N         143.6442  142.5316  164.4360 N.3     1  UNL1       -0.2715
      3 C         143.5527  141.7658  165.7225 C.3     1  UNL1        0.0725
      4 C         142.3103  141.8498  166.5587 C.3     1  UNL1        0.0238
      5 C         141.1592  142.6997  166.1084 C.3     1  UNL1        0.0489
      6 C         141.2507  143.4655  164.8219 C.3     1  UNL1        0.0238
      7 C         142.4932  143.3815  163.9857 C.3     1  UNL1        0.0725
      8 C         140.6007  142.1644  167.3935 C.ar    1  UNL1       -0.0204
      9 C         140.5388  143.0427  168.6079 C.ar    1  UNL1       -0.0042
     10 C         139.9802  142.5075  169.8930 C.ar    1  UNL1       -0.0003
     11 C         139.4836  141.0939  169.9637 C.ar    1  UNL1       -0.0000
     12 C         139.5454  140.2155  168.7494 C.ar    1  UNL1       -0.0003
     13 C         140.1040  140.7508  167.4643 C.ar    1  UNL1       -0.0042
     14 C         139.8142  143.3637  166.1044 C.3     1  UNL1        0.1466
     15 O         139.0644  143.5315  164.8161 O.3     1  UNL1       -0.3486
     16 C         137.8416  142.7055  164.5470 C.3     1  UNL1        0.1702
     17 C         137.9697  141.3766  163.8632 C.ar    1  UNL1        0.0269
     18 C         137.5950  141.2378  162.4174 C.ar    1  UNL1        0.0970
     19 N         137.7231  139.9089  161.7337 N.ar    1  UNL1       -0.2421
     20 C         138.2260  138.7187  162.4957 C.ar    1  UNL1        0.1055
     21 C         138.6007  138.8575  163.9415 C.ar    1  UNL1        0.0535
     22 BR        139.1036  137.6674  164.7035 Br      1  UNL1       -0.0474
     23 C         138.4726  140.1864  164.6253 C.ar    1  UNL1        0.0080
@<TRIPOS>BOND
     1     1     2    1
     2     2     3    1
     3     3     4    1
     4     4     5    1
     5     5    14    1
     6    14    15    1
     7    15    16    1
     8    16    17    1
     9    17    18   ar
    10    18    19   ar
    11    19    20   ar
    12    20    21   ar
    13    21    22    1
    14    21    23   ar
    15     5     8    1
    16     8     9   ar
    17     9    10   ar
    18    10    11   ar
    19    11    12   ar
    20    12    13   ar
    21     5     6    1
    22     6     7    1
    23     7     2    1
    24    23    17   ar
    25    13     8   ar
@<TRIPOS>MOLECULE
*****
 23 25 0 0 0
SMALL
GASTEIGER

@<TRIPOS>ATOM
      1 C         145.1539  141.7955  163.3756 C.3     1  UNL1        0.0896
      2 N         144.0660  141.4015  164.3302 N.3     1  UNL1       -0.2715
      3 C         143.7689  142.2593  165.5243 C.3     1  UNL1        0.0725
      4 C         142.6810  141.8654  166.4789 C.3     1  UNL1        0.0238
      5 C         141.8901  140.6135  166.2394 C.3     1  UNL1        0.0489
      6 C         142.1872  139.7557  165.0454 C.3     1  UNL1        0.0238
      7 C         143.2751  140.1497  164.0908 C.3     1  UNL1        0.0725
      8 C         141.2400  141.0947  167.5027 C.ar    1  UNL1       -0.0204
      9 C         141.0220  142.5624  167.7220 C.ar    1  UNL1       -0.0042
     10 C         140.3719  143.0436  168.9853 C.ar    1  UNL1       -0.0003
     11 C         139.9398  142.0570  170.0292 C.ar    1  UNL1       -0.0000
     12 C         140.1578  140.5892  169.8099 C.ar    1  UNL1       -0.0003
     13 C         140.8079  140.1080  168.5466 C.ar    1  UNL1       -0.0042
     14 C         140.8734  139.5287  166.4387 C.3     1  UNL1        0.1466
     15 O         140.0620  139.0387  165.2762 O.3     1  UNL1       -0.3486
     16 C         138.6372  139.4798  165.1170 C.3     1  UNL1        0.1702
     17 C         138.3248  140.7674  164.4137 C.ar    1  UNL1        0.0269
     18 C         137.6771  140.7451  163.0609 C.ar    1  UNL1        0.0970
     19 N         137.3648  142.0327  162.3577 N.ar    1  UNL1       -0.2421
     20 C         137.7001  143.3425  163.0072 C.ar    1  UNL1        0.1055
     21 C         138.3479  143.3648  164.3600 C.ar    1  UNL1        0.0535
     22 BR        138.6832  144.6746  165.0094 Br      1  UNL1       -0.0474
     23 C         138.6602  142.0772  165.0633 C.ar    1  UNL1        0.0080
@<TRIPOS>BOND
     1     1     2    1
     2     2     3    1
     3     3     4    1
     4     4     5    1
     5     5    14    1
     6    14    15    1
     7    15    16    1
     8    16    17    1
     9    17    18   ar
    10    18    19   ar
    11    19    20   ar
    12    20    21   ar
    13    21    22    1
    14    21    23   ar
    15     5     8    1
    16     8     9   ar
    17     9    10   ar
    18    10    11   ar
    19    11    12   ar
    20    12    13   ar
    21     5     6    1
    22     6     7    1
    23     7     2    1
    24    23    17   ar
    25    13     8   ar
@<TRIPOS>MOLECULE
*****
 23 25 0 0 0
SMALL
GASTEIGER

@<TRIPOS>ATOM
      1 C         142.6059  142.8762  170.5441 C.3     1  UNL1        0.0896
      2 N         142.3208  142.1344  169.2719 N.3     1  UNL1       -0.2715
      3 C         141.1710  141.1734  169.2057 C.3     1  UNL1        0.0725
      4 C         140.8859  140.4316  167.9335 C.3     1  UNL1        0.0238
      5 C         141.7505  140.6508  166.7276 C.3     1  UNL1        0.0489
      6 C         142.9003  141.6118  166.7938 C.3     1  UNL1        0.0238
      7 C         143.1854  142.3536  168.0660 C.3     1  UNL1        0.0725
      8 C         140.7845  139.6445  166.1760 C.ar    1  UNL1       -0.0204
      9 C         141.2824  138.5173  165.3208 C.ar    1  UNL1       -0.0042
     10 C         140.3164  137.5110  164.7692 C.ar    1  UNL1       -0.0003
     11 C         138.8525  137.6320  165.0729 C.ar    1  UNL1       -0.0000
     12 C         138.3545  138.7592  165.9281 C.ar    1  UNL1       -0.0003
     13 C         139.3205  139.7655  166.4797 C.ar    1  UNL1       -0.0042
     14 C         142.2797  140.5205  165.3300 C.3     1  UNL1        0.1466
     15 O         142.5739  141.7495  164.5219 O.3     1  UNL1       -0.3486
     16 C         141.7757  142.0435  163.2864 C.3     1  UNL1        0.1702
     17 C         140.3105  141.7248  163.2465 C.ar    1  UNL1        0.0269
     18 C         139.3332  142.5967  163.9777 C.ar    1  UNL1        0.0970
     19 N         137.8680  142.2779  163.9378 N.ar    1  UNL1       -0.2421
     20 C         137.3802  141.0873  163.1668 C.ar    1  UNL1        0.1055
     21 C         138.3575  140.2154  162.4356 C.ar    1  UNL1        0.0535
     22 BR        137.8697  139.0249  161.6646 Br      1  UNL1       -0.0474
     23 C         139.8227  140.5342  162.4754 C.ar    1  UNL1        0.0080
@<TRIPOS>BOND
     1     1     2    1
     2     2     3    1
     3     3     4    1
     4     4     5    1
     5     5    14    1
     6    14    15    1
     7    15    16    1
     8    16    17    1
     9    17    18   ar
    10    18    19   ar
    11    19    20   ar
    12    20    21   ar
    13    21    22    1
    14    21    23   ar
    15     5     8    1
    16     8     9   ar
    17     9    10   ar
    18    10    11   ar
    19    11    12   ar
    20    12    13   ar
    21     5     6    1
    22     6     7    1
    23     7     2    1
    24    23    17   ar
    25    13     8   ar
@<TRIPOS>MOLECULE
*****
 23 25 0 0 0
SMALL
GASTEIGER

@<TRIPOS>ATOM
      1 C         140.0528  142.6590  170.5318 C.3     1  UNL1        0.0896
      2 N         140.5890  141.9446  169.3268 N.3     1  UNL1       -0.2715
      3 C         141.8745  142.3946  168.6984 C.3     1  UNL1        0.0725
      4 C         142.4107  141.6801  167.4934 C.3     1  UNL1        0.0238
      5 C         141.6615  140.5156  166.9168 C.3     1  UNL1        0.0489
      6 C         140.3760  140.0655  167.5453 C.3     1  UNL1        0.0238
      7 C         139.8398  140.7800  168.7502 C.3     1  UNL1        0.0725
      8 C         142.8274  140.5675  165.9745 C.ar    1  UNL1       -0.0204
      9 C         143.3081  141.8872  165.4480 C.ar    1  UNL1       -0.0042
     10 C         144.4740  141.9392  164.5057 C.ar    1  UNL1       -0.0003
     11 C         145.1592  140.6713  164.0899 C.ar    1  UNL1       -0.0000
     12 C         144.6786  139.3515  164.6164 C.ar    1  UNL1       -0.0003
     13 C         143.5127  139.2996  165.5587 C.ar    1  UNL1       -0.0042
     14 C         141.3172  139.3690  166.0130 C.3     1  UNL1        0.1466
     15 O         139.9599  139.2956  165.3786 O.3     1  UNL1       -0.3486
     16 C         139.7725  139.7321  163.9558 C.3     1  UNL1        0.1702
     17 C         139.0991  141.0381  163.6545 C.ar    1  UNL1        0.0269
     18 C         138.2642  141.1835  162.4168 C.ar    1  UNL1        0.0970
     19 N         137.5908  142.4896  162.1156 N.ar    1  UNL1       -0.2421
     20 C         137.7524  143.6502  163.0519 C.ar    1  UNL1        0.1055
     21 C         138.5874  143.5049  164.2895 C.ar    1  UNL1        0.0535
     22 BR        138.7490  144.6655  165.2258 Br      1  UNL1       -0.0474
     23 C         139.2607  142.1988  164.5908 C.ar    1  UNL1        0.0080
@<TRIPOS>BOND
     1     1     2    1
     2     2     3    1
     3     3     4    1
     4     4     5    1
     5     5    14    1
     6    14    15    1
     7    15    16    1
     8    16    17    1
     9    17    18   ar
    10    18    19   ar
    11    19    20   ar
    12    20    21   ar
    13    21    22    1
    14    21    23   ar
    15     5     8    1
    16     8     9   ar
    17     9    10   ar
    18    10    11   ar
    19    11    12   ar
    20    12    13   ar
    21     5     6    1
    22     6     7    1
    23     7     2    1
    24    23    17   ar
    25    13     8   ar
@<TRIPOS>MOLECULE
*****
 23 25 0 0 0
SMALL
GASTEIGER

@<TRIPOS>ATOM
      1 C         140.5017  145.2628  162.7819 C.3     1  UNL1        0.0896
      2 N         140.7879  144.3773  163.9583 N.3     1  UNL1       -0.2715
      3 C         139.7074  144.0839  164.9565 C.3     1  UNL1        0.0725
      4 C         139.9935  143.1983  166.1330 C.3     1  UNL1        0.0238
      5 C         141.3601  142.6062  166.3112 C.3     1  UNL1        0.0489
      6 C         142.4406  142.8997  165.3130 C.3     1  UNL1        0.0238
      7 C         142.1544  143.7852  164.1365 C.3     1  UNL1        0.0725
      8 C         140.6711  142.0387  167.5167 C.ar    1  UNL1       -0.0204
      9 C         140.0383  140.6805  167.4488 C.ar    1  UNL1       -0.0042
     10 C         139.3493  140.1129  168.6543 C.ar    1  UNL1       -0.0003
     11 C         139.2932  140.9037  169.9277 C.ar    1  UNL1       -0.0000
     12 C         139.9261  142.2619  169.9956 C.ar    1  UNL1       -0.0003
     13 C         140.6151  142.8295  168.7901 C.ar    1  UNL1       -0.0042
     14 C         142.4875  141.8170  166.9081 C.3     1  UNL1        0.1466
     15 O         143.3644  140.9778  166.0268 O.3     1  UNL1       -0.3486
     16 C         143.1315  139.4993  165.9265 C.3     1  UNL1        0.1702
     17 C         142.5370  138.9167  164.6786 C.ar    1  UNL1        0.0269
     18 C         143.4071  138.6542  163.4852 C.ar    1  UNL1        0.0970
     19 N         142.8126  138.0716  162.2374 N.ar    1  UNL1       -0.2421
     20 C         141.3481  137.7516  162.1828 C.ar    1  UNL1        0.1055
     21 C         140.4781  138.0142  163.3762 C.ar    1  UNL1        0.0535
     22 BR        139.0137  137.6942  163.3217 Br      1  UNL1       -0.0474
     23 C         141.0725  138.5968  164.6241 C.ar    1  UNL1        0.0080
@<TRIPOS>BOND
     1     1     2    1
     2     2     3    1
     3     3     4    1
     4     4     5    1
     5     5    14    1
     6    14    15    1
     7    15    16    1
     8    16    17    1
     9    17    18   ar
    10    18    19   ar
    11    19    20   ar
    12    20    21   ar
    13    21    22    1
    14    21    23   ar
    15     5     8    1
    16     8     9   ar
    17     9    10   ar
    18    10    11   ar
    19    11    12   ar
    20    12    13   ar
    21     5     6    1
    22     6     7    1
    23     7     2    1
    24    23    17   ar
    25    13     8   ar
@<TRIPOS>MOLECULE
*****
 23 25 0 0 0
SMALL
GASTEIGER

@<TRIPOS>ATOM
      1 C         141.0503  141.4065  171.1012 C.3     1  UNL1        0.0896
      2 N         141.4126  141.6173  169.6609 N.3     1  UNL1       -0.2715
      3 C         142.6174  140.9357  169.0831 C.3     1  UNL1        0.0725
      4 C         142.9797  141.1465  167.6429 C.3     1  UNL1        0.0238
      5 C         142.1373  142.0390  166.7805 C.3     1  UNL1        0.0489
      6 C         140.9326  142.7206  167.3583 C.3     1  UNL1        0.0238
      7 C         140.5702  142.5098  168.7985 C.3     1  UNL1        0.0725
      8 C         143.1746  141.6163  165.7828 C.ar    1  UNL1       -0.0204
      9 C         143.2912  140.1741  165.3874 C.ar    1  UNL1       -0.0042
     10 C         144.3285  139.7514  164.3897 C.ar    1  UNL1       -0.0003
     11 C         145.2492  140.7710  163.7875 C.ar    1  UNL1       -0.0000
     12 C         145.1327  142.2132  164.1828 C.ar    1  UNL1       -0.0003
     13 C         144.0953  142.6359  165.1805 C.ar    1  UNL1       -0.0042
     14 C         141.6551  142.7847  165.5716 C.3     1  UNL1        0.1466
     15 O         140.1979  142.7746  165.2159 O.3     1  UNL1       -0.3486
     16 C         139.6926  141.8484  164.1496 C.3     1  UNL1        0.1702
     17 C         139.4448  140.4035  164.4670 C.ar    1  UNL1        0.0269
     18 C         140.0516  139.3325  163.6097 C.ar    1  UNL1        0.0970
     19 N         139.8037  137.8876  163.9271 N.ar    1  UNL1       -0.2421
     20 C         138.9491  137.5137  165.1018 C.ar    1  UNL1        0.1055
     21 C         138.3423  138.5846  165.9591 C.ar    1  UNL1        0.0535
     22 BR        137.4878  138.2107  167.1337 Br      1  UNL1       -0.0474
     23 C         138.5902  140.0296  165.6417 C.ar    1  UNL1        0.0080
@<TRIPOS>BOND
     1     1     2    1
     2     2     3    1
     3     3     4    1
     4     4     5    1
     5     5    14    1
     6    14    15    1
     7    15    16    1
     8    16    17    1
     9    17    18   ar
    10    18    19   ar
    11    19    20   ar
    12    20    21   ar
    13    21    22    1
    14    21    23   ar
    15     5     8    1
    16     8     9   ar
    17     9    10   ar
    18    10    11   ar
    19    11    12   ar
    20    12    13   ar
    21     5     6    1
    22     6     7    1
    23     7     2    1
    24    23    17   ar
    25    13     8   ar
