@<TRIPOS>MOLECULE
*****
 20 22 0 0 0
SMALL
GASTEIGER

@<TRIPOS>ATOM
      1 C         138.8454  140.1499  164.7698 C.ar    1  UNL1        0.1484
      2 C         138.0427  139.3292  165.7353 C.ar    1  UNL1        0.0796
      3 C         138.3776  139.3506  167.1972 C.ar    1  UNL1        0.2016
      4 O         137.5749  138.5299  168.1626 O.2     1  UNL1       -0.2864
      5 C         139.5153  140.1927  167.6938 C.ar    1  UNL1        0.0732
      6 C         139.8503  140.2140  169.1557 C.ar    1  UNL1        0.0020
      7 C         140.9880  141.0561  169.6522 C.ar    1  UNL1       -0.0216
      8 C         141.3230  141.0775  171.1142 C.3     1  UNL1        0.0310
      9 C         141.7907  141.8768  168.6868 C.ar    1  UNL1       -0.0011
     10 C         141.4558  141.8554  167.2248 C.ar    1  UNL1        0.0373
     11 C         140.3181  141.0134  166.7283 C.ar    1  UNL1        0.1483
     12 O         139.9831  140.9920  165.2663 O.2     1  UNL1       -0.4533
     13 C         137.8404  140.0858  160.3840 C.ar    1  UNL1        0.1387
     14 C         138.0894  141.3924  161.0773 C.ar    1  UNL1        0.0370
     15 C         138.4244  141.4137  162.5392 C.ar    1  UNL1        0.0061
     16 C         138.5104  140.1285  163.3078 C.ar    1  UNL1        0.0349
     17 C         138.2614  138.8219  162.6145 C.ar    1  UNL1        0.0061
     18 C         137.9264  138.8005  161.1526 C.ar    1  UNL1        0.0370
     19 C         138.0964  141.0912  158.0020 C.3     1  UNL1        0.2525
     20 O         137.5054  140.0644  158.9220 O.3     1  UNL1       -0.4714
@<TRIPOS>BOND
     1    19    20    1
     2    20    13    1
     3    13    14   ar
     4    14    15   ar
     5    15    16   ar
     6    16     1    1
     7     1     2   ar
     8     2     3   ar
     9     3     4    2
    10     3     5   ar
    11     5     6   ar
    12     6     7   ar
    13     7     8    1
    14     7     9   ar
    15     9    10   ar
    16    10    11   ar
    17    11    12   ar
    18    16    17   ar
    19    17    18   ar
    20    18    13   ar
    21    12     1   ar
    22    11     5   ar
@<TRIPOS>MOLECULE
*****
 20 22 0 0 0
SMALL
GASTEIGER

@<TRIPOS>ATOM
      1 C         140.0152  142.5868  164.6484 C.ar    1  UNL1        0.1484
      2 C         138.8719  143.4419  164.1884 C.ar    1  UNL1        0.0796
      3 C         138.9429  144.1390  162.8622 C.ar    1  UNL1        0.2016
      4 O         137.7996  144.9942  162.4022 O.2     1  UNL1       -0.2864
      5 C         140.1573  143.9811  161.9959 C.ar    1  UNL1        0.0732
      6 C         140.2283  144.6782  160.6696 C.ar    1  UNL1        0.0020
      7 C         141.4427  144.5202  159.8034 C.ar    1  UNL1       -0.0216
      8 C         141.5137  145.2173  158.4771 C.3     1  UNL1        0.0310
      9 C         142.5860  143.6650  160.2634 C.ar    1  UNL1       -0.0011
     10 C         142.5150  142.9679  161.5897 C.ar    1  UNL1        0.0373
     11 C         141.3006  143.1259  162.4559 C.ar    1  UNL1        0.1483
     12 O         141.2296  142.4288  163.7822 O.2     1  UNL1       -0.4533
     13 C         139.8020  140.4954  168.6271 C.ar    1  UNL1        0.1387
     14 C         139.3017  139.8085  167.3911 C.ar    1  UNL1        0.0370
     15 C         139.3728  140.5057  166.0649 C.ar    1  UNL1        0.0061
     16 C         139.9442  141.8897  165.9747 C.ar    1  UNL1        0.0349
     17 C         140.4444  142.5765  167.2108 C.ar    1  UNL1        0.0061
     18 C         140.3734  141.8794  168.5370 C.ar    1  UNL1        0.0370
     19 C         140.5919  140.2612  171.0911 C.3     1  UNL1        0.2525
     20 O         139.7309  139.7982  169.9535 O.3     1  UNL1       -0.4714
@<TRIPOS>BOND
     1    19    20    1
     2    20    13    1
     3    13    14   ar
     4    14    15   ar
     5    15    16   ar
     6    16     1    1
     7     1     2   ar
     8     2     3   ar
     9     3     4    2
    10     3     5   ar
    11     5     6   ar
    12     6     7   ar
    13     7     8    1
    14     7     9   ar
    15     9    10   ar
    16    10    11   ar
    17    11    12   ar
    18    16    17   ar
    19    17    18   ar
    20    18    13   ar
    21    12     1   ar
    22    11     5   ar
@<TRIPOS>MOLECULE
*****
 20 22 0 0 0
SMALL
GASTEIGER

@<TRIPOS>ATOM
      1 C         140.6570  138.7008  163.3895 C.ar    1  UNL1        0.1484
      2 C         142.1026  138.3364  163.2241 C.ar    1  UNL1        0.0796
      3 C         142.6663  138.1077  161.8530 C.ar    1  UNL1        0.2016
      4 O         144.1119  137.7433  161.6875 O.2     1  UNL1       -0.2864
      5 C         141.7843  138.2434  160.6472 C.ar    1  UNL1        0.0732
      6 C         142.3480  138.0148  159.2761 C.ar    1  UNL1        0.0020
      7 C         141.4660  138.1505  158.0704 C.ar    1  UNL1       -0.0216
      8 C         142.0297  137.9218  156.6993 C.3     1  UNL1        0.0310
      9 C         140.0204  138.5149  158.2359 C.ar    1  UNL1       -0.0011
     10 C         139.4567  138.7435  159.6070 C.ar    1  UNL1        0.0373
     11 C         140.3386  138.6078  160.8126 C.ar    1  UNL1        0.1483
     12 O         139.7750  138.8365  162.1838 O.2     1  UNL1       -0.4533
     13 C         138.9660  139.3867  167.5029 C.ar    1  UNL1        0.1387
     14 C         138.1518  138.6694  166.4673 C.ar    1  UNL1        0.0370
     15 C         138.7154  138.4407  165.0962 C.ar    1  UNL1        0.0061
     16 C         140.0933  138.9295  164.7607 C.ar    1  UNL1        0.0349
     17 C         140.9075  139.6468  165.7962 C.ar    1  UNL1        0.0061
     18 C         140.3438  139.8755  167.1673 C.ar    1  UNL1        0.0370
     19 C         139.1366  140.4846  169.8514 C.3     1  UNL1        0.2525
     20 O         138.4023  139.6154  168.8740 O.3     1  UNL1       -0.4714
@<TRIPOS>BOND
     1    19    20    1
     2    20    13    1
     3    13    14   ar
     4    14    15   ar
     5    15    16   ar
     6    16     1    1
     7     1     2   ar
     8     2     3   ar
     9     3     4    2
    10     3     5   ar
    11     5     6   ar
    12     6     7   ar
    13     7     8    1
    14     7     9   ar
    15     9    10   ar
    16    10    11   ar
    17    11    12   ar
    18    16    17   ar
    19    17    18   ar
    20    18    13   ar
    21    12     1   ar
    22    11     5   ar
@<TRIPOS>MOLECULE
*****
 20 22 0 0 0
SMALL
GASTEIGER

@<TRIPOS>ATOM
      1 C         141.4520  143.8251  163.3511 C.ar    1  UNL1        0.1484
      2 C         140.4606  144.9106  163.0530 C.ar    1  UNL1        0.0796
      3 C         140.3287  145.4431  161.6569 C.ar    1  UNL1        0.2016
      4 O         139.3373  146.5286  161.3588 O.2     1  UNL1       -0.2864
      5 C         141.1883  144.8902  160.5589 C.ar    1  UNL1        0.0732
      6 C         141.0564  145.4227  159.1629 C.ar    1  UNL1        0.0020
      7 C         141.9159  144.8698  158.0650 C.ar    1  UNL1       -0.0216
      8 C         141.7841  145.4023  156.6689 C.3     1  UNL1        0.0310
      9 C         142.9073  143.7843  158.3632 C.ar    1  UNL1       -0.0011
     10 C         143.0392  143.2518  159.7592 C.ar    1  UNL1        0.0373
     11 C         142.1797  143.8047  160.8571 C.ar    1  UNL1        0.1483
     12 O         142.3115  143.2722  162.2532 O.2     1  UNL1       -0.4533
     13 C         141.8476  142.2276  167.5393 C.ar    1  UNL1        0.1387
     14 C         143.0460  142.2753  166.6386 C.ar    1  UNL1        0.0370
     15 C         142.9141  142.8078  165.2425 C.ar    1  UNL1        0.0061
     16 C         141.5838  143.2926  164.7473 C.ar    1  UNL1        0.0349
     17 C         140.3854  143.2449  165.6480 C.ar    1  UNL1        0.0061
     18 C         140.5173  142.7124  167.0441 C.ar    1  UNL1        0.0370
     19 C         143.3048  141.7471  169.6360 C.3     1  UNL1        0.2525
     20 O         141.9794  141.6951  168.9355 O.3     1  UNL1       -0.4714
@<TRIPOS>BOND
     1    19    20    1
     2    20    13    1
     3    13    14   ar
     4    14    15   ar
     5    15    16   ar
     6    16     1    1
     7     1     2   ar
     8     2     3   ar
     9     3     4    2
    10     3     5   ar
    11     5     6   ar
    12     6     7   ar
    13     7     8    1
    14     7     9   ar
    15     9    10   ar
    16    10    11   ar
    17    11    12   ar
    18    16    17   ar
    19    17    18   ar
    20    18    13   ar
    21    12     1   ar
    22    11     5   ar
@<TRIPOS>MOLECULE
*****
 20 22 0 0 0
SMALL
GASTEIGER

@<TRIPOS>ATOM
      1 C         139.9300  142.5546  164.6338 C.ar    1  UNL1        0.1484
      2 C         139.5862  141.0959  164.5714 C.ar    1  UNL1        0.0796
      3 C         139.5669  140.2756  165.8270 C.ar    1  UNL1        0.2016
      4 O         139.2231  138.8168  165.7646 O.2     1  UNL1       -0.2864
      5 C         139.8914  140.9139  167.1451 C.ar    1  UNL1        0.0732
      6 C         139.8721  140.0936  168.4007 C.ar    1  UNL1        0.0020
      7 C         140.1966  140.7320  169.7187 C.ar    1  UNL1       -0.0216
      8 C         140.1773  139.9116  170.9744 C.3     1  UNL1        0.0310
      9 C         140.5404  142.1907  169.7810 C.ar    1  UNL1       -0.0011
     10 C         140.5598  143.0110  168.5254 C.ar    1  UNL1        0.0373
     11 C         140.2352  142.3727  167.2075 C.ar    1  UNL1        0.1483
     12 O         140.2546  143.1930  165.9517 O.2     1  UNL1       -0.4533
     13 C         139.9880  145.0155  160.8667 C.ar    1  UNL1        0.1387
     14 C         140.4839  143.6001  160.8456 C.ar    1  UNL1        0.0370
     15 C         140.4646  142.7798  162.1012 C.ar    1  UNL1        0.0061
     16 C         139.9493  143.3750  163.3781 C.ar    1  UNL1        0.0349
     17 C         139.4534  144.7905  163.3992 C.ar    1  UNL1        0.0061
     18 C         139.4728  145.6107  162.1436 C.ar    1  UNL1        0.0370
     19 C         140.2728  145.1780  158.2894 C.3     1  UNL1        0.2525
     20 O         140.0073  145.8359  159.6110 O.3     1  UNL1       -0.4714
@<TRIPOS>BOND
     1    19    20    1
     2    20    13    1
     3    13    14   ar
     4    14    15   ar
     5    15    16   ar
     6    16     1    1
     7     1     2   ar
     8     2     3   ar
     9     3     4    2
    10     3     5   ar
    11     5     6   ar
    12     6     7   ar
    13     7     8    1
    14     7     9   ar
    15     9    10   ar
    16    10    11   ar
    17    11    12   ar
    18    16    17   ar
    19    17    18   ar
    20    18    13   ar
    21    12     1   ar
    22    11     5   ar
@<TRIPOS>MOLECULE
*****
 20 22 0 0 0
SMALL
GASTEIGER

@<TRIPOS>ATOM
      1 C         143.0066  139.6966  164.4740 C.ar    1  UNL1        0.1484
      2 C         143.6478  138.6785  165.3697 C.ar    1  UNL1        0.0796
      3 C         143.3428  138.6736  166.8384 C.ar    1  UNL1        0.2016
      4 O         143.9840  137.6555  167.7341 O.2     1  UNL1       -0.2864
      5 C         142.3966  139.6868  167.4113 C.ar    1  UNL1        0.0732
      6 C         142.0917  139.6819  168.8799 C.ar    1  UNL1        0.0020
      7 C         141.1455  140.6950  169.4528 C.ar    1  UNL1       -0.0216
      8 C         140.8405  140.6901  170.9215 C.3     1  UNL1        0.0310
      9 C         140.5044  141.7132  168.5571 C.ar    1  UNL1       -0.0011
     10 C         140.8093  141.7181  167.0885 C.ar    1  UNL1        0.0373
     11 C         141.7555  140.7049  166.5156 C.ar    1  UNL1        0.1483
     12 O         142.0605  140.7098  165.0469 O.2     1  UNL1       -0.4533
     13 C         143.9217  139.7114  160.0680 C.ar    1  UNL1        0.1387
     14 C         143.6582  141.0031  160.7836 C.ar    1  UNL1        0.0370
     15 C         143.3532  140.9982  162.2522 C.ar    1  UNL1        0.0061
     16 C         143.3117  139.7015  163.0053 C.ar    1  UNL1        0.0349
     17 C         143.5752  138.4099  162.2897 C.ar    1  UNL1        0.0061
     18 C         143.8802  138.4148  160.8211 C.ar    1  UNL1        0.0370
     19 C         143.9156  140.9288  157.7728 C.3     1  UNL1        0.2525
     20 O         144.2267  139.7163  158.5993 O.3     1  UNL1       -0.4714
@<TRIPOS>BOND
     1    19    20    1
     2    20    13    1
     3    13    14   ar
     4    14    15   ar
     5    15    16   ar
     6    16     1    1
     7     1     2   ar
     8     2     3   ar
     9     3     4    2
    10     3     5   ar
    11     5     6   ar
    12     6     7   ar
    13     7     8    1
    14     7     9   ar
    15     9    10   ar
    16    10    11   ar
    17    11    12   ar
    18    16    17   ar
    19    17    18   ar
    20    18    13   ar
    21    12     1   ar
    22    11     5   ar
@<TRIPOS>MOLECULE
*****
 20 22 0 0 0
SMALL
GASTEIGER

@<TRIPOS>ATOM
      1 C         139.2792  140.6929  164.8660 C.ar    1  UNL1        0.1484
      2 C         139.0003  139.2891  164.4172 C.ar    1  UNL1        0.0796
      3 C         138.6833  139.0108  162.9778 C.ar    1  UNL1        0.2016
      4 O         138.4044  137.6069  162.5290 O.2     1  UNL1       -0.2864
      5 C         138.6452  140.1364  161.9870 C.ar    1  UNL1        0.0732
      6 C         138.3283  139.8582  160.5476 C.ar    1  UNL1        0.0020
      7 C         138.2902  140.9838  159.5569 C.ar    1  UNL1       -0.0216
      8 C         137.9732  140.7056  158.1173 C.3     1  UNL1        0.0310
      9 C         138.5691  142.3877  160.0056 C.ar    1  UNL1       -0.0011
     10 C         138.8861  142.6659  161.4451 C.ar    1  UNL1        0.0373
     11 C         138.9241  141.5403  162.4358 C.ar    1  UNL1        0.1483
     12 O         139.2411  141.8185  163.8753 O.2     1  UNL1       -0.4533
     13 C         140.2301  141.5276  169.1844 C.ar    1  UNL1        0.1387
     14 C         140.5733  142.5396  168.1318 C.ar    1  UNL1        0.0370
     15 C         140.2563  142.2613  166.6923 C.ar    1  UNL1        0.0061
     16 C         139.5962  140.9711  166.3055 C.ar    1  UNL1        0.0349
     17 C         139.2530  139.9592  167.3582 C.ar    1  UNL1        0.0061
     18 C         139.5700  140.2374  168.7976 C.ar    1  UNL1        0.0370
     19 C         141.9176  141.5148  171.1599 C.3     1  UNL1        0.2525
     20 O         140.5471  141.8059  170.6240 O.3     1  UNL1       -0.4714
@<TRIPOS>BOND
     1    19    20    1
     2    20    13    1
     3    13    14   ar
     4    14    15   ar
     5    15    16   ar
     6    16     1    1
     7     1     2   ar
     8     2     3   ar
     9     3     4    2
    10     3     5   ar
    11     5     6   ar
    12     6     7   ar
    13     7     8    1
    14     7     9   ar
    15     9    10   ar
    16    10    11   ar
    17    11    12   ar
    18    16    17   ar
    19    17    18   ar
    20    18    13   ar
    21    12     1   ar
    22    11     5   ar
@<TRIPOS>MOLECULE
*****
 20 22 0 0 0
SMALL
GASTEIGER

@<TRIPOS>ATOM
      1 C         143.3810  141.6905  164.7579 C.ar    1  UNL1        0.1484
      2 C         143.7030  143.0948  164.3406 C.ar    1  UNL1        0.0796
      3 C         143.9482  143.4100  162.8948 C.ar    1  UNL1        0.2016
      4 O         144.2702  144.8144  162.4775 O.2     1  UNL1       -0.2864
      5 C         143.8715  142.3209  161.8662 C.ar    1  UNL1        0.0732
      6 C         144.1167  142.6361  160.4204 C.ar    1  UNL1        0.0020
      7 C         144.0400  141.5470  159.3918 C.ar    1  UNL1       -0.0216
      8 C         144.2852  141.8622  157.9459 C.3     1  UNL1        0.0310
      9 C         143.7180  140.1427  159.8091 C.ar    1  UNL1       -0.0011
     10 C         143.4728  139.8274  161.2550 C.ar    1  UNL1        0.0373
     11 C         143.5495  140.9166  162.2835 C.ar    1  UNL1        0.1483
     12 O         143.3043  140.6013  163.7294 O.2     1  UNL1       -0.4533
     13 C         142.6454  140.7450  169.0955 C.ar    1  UNL1        0.1387
     14 C         143.0552  142.1293  168.6887 C.ar    1  UNL1        0.0370
     15 C         143.3004  142.4445  167.2429 C.ar    1  UNL1        0.0061
     16 C         143.1358  141.3753  166.2038 C.ar    1  UNL1        0.0349
     17 C         142.7260  139.9909  166.6106 C.ar    1  UNL1        0.0061
     18 C         142.4807  139.6757  168.0564 C.ar    1  UNL1        0.0370
     19 C         141.1152  140.8478  171.1927 C.3     1  UNL1        0.2525
     20 O         142.4001  140.4298  170.5414 O.3     1  UNL1       -0.4714
@<TRIPOS>BOND
     1    19    20    1
     2    20    13    1
     3    13    14   ar
     4    14    15   ar
     5    15    16   ar
     6    16     1    1
     7     1     2   ar
     8     2     3   ar
     9     3     4    2
    10     3     5   ar
    11     5     6   ar
    12     6     7   ar
    13     7     8    1
    14     7     9   ar
    15     9    10   ar
    16    10    11   ar
    17    11    12   ar
    18    16    17   ar
    19    17    18   ar
    20    18    13   ar
    21    12     1   ar
    22    11     5   ar
@<TRIPOS>MOLECULE
*****
 20 22 0 0 0
SMALL
GASTEIGER

@<TRIPOS>ATOM
      1 C         141.2451  139.1786  164.7965 C.ar    1  UNL1        0.1484
      2 C         142.4752  138.6506  164.1196 C.ar    1  UNL1        0.0796
      3 C         142.4635  138.3854  162.6433 C.ar    1  UNL1        0.2016
      4 O         143.6935  137.8575  161.9663 O.2     1  UNL1       -0.2864
      5 C         141.2216  138.6480  161.8439 C.ar    1  UNL1        0.0732
      6 C         141.2099  138.3827  160.3676 C.ar    1  UNL1        0.0020
      7 C         139.9682  138.6453  159.5683 C.ar    1  UNL1       -0.0216
      8 C         139.9564  138.3800  158.0919 C.3     1  UNL1        0.0310
      9 C         138.7381  139.1732  160.2452 C.ar    1  UNL1       -0.0011
     10 C         138.7498  139.4385  161.7215 C.ar    1  UNL1        0.0373
     11 C         139.9916  139.1759  162.5208 C.ar    1  UNL1        0.1483
     12 O         140.0033  139.4412  163.9972 O.2     1  UNL1       -0.4533
     13 C         141.2803  139.9744  169.2254 C.ar    1  UNL1        0.1387
     14 C         140.0077  140.1264  168.4462 C.ar    1  UNL1        0.0370
     15 C         139.9960  139.8612  166.9699 C.ar    1  UNL1        0.0061
     16 C         141.2569  139.4438  166.2729 C.ar    1  UNL1        0.0349
     17 C         142.5295  139.2918  167.0521 C.ar    1  UNL1        0.0061
     18 C         142.5412  139.5571  168.5284 C.ar    1  UNL1        0.0370
     19 C         141.4788  141.6382  171.2110 C.3     1  UNL1        0.2525
     20 O         141.2921  140.2397  170.7018 O.3     1  UNL1       -0.4714
@<TRIPOS>BOND
     1    19    20    1
     2    20    13    1
     3    13    14   ar
     4    14    15   ar
     5    15    16   ar
     6    16     1    1
     7     1     2   ar
     8     2     3   ar
     9     3     4    2
    10     3     5   ar
    11     5     6   ar
    12     6     7   ar
    13     7     8    1
    14     7     9   ar
    15     9    10   ar
    16    10    11   ar
    17    11    12   ar
    18    16    17   ar
    19    17    18   ar
    20    18    13   ar
    21    12     1   ar
    22    11     5   ar
