@<TRIPOS>MOLECULE
*****
 24 26 0 0 0
SMALL
GASTEIGER

@<TRIPOS>ATOM
      1 C         138.4599  141.2915  163.8940 C.ar    1  UNL1        0.0002
      2 C         138.0226  142.4836  164.6925 C.ar    1  UNL1        0.0031
      3 C         138.0302  143.8478  164.0689 C.ar    1  UNL1        0.0369
      4 C         138.4753  144.0200  162.6469 C.ar    1  UNL1        0.1386
      5 C         138.9126  142.8279  161.8484 C.ar    1  UNL1        0.0369
      6 C         138.9050  141.4637  162.4720 C.ar    1  UNL1        0.0031
      7 C         138.4369  137.1989  165.7647 C.ar    1  UNL1        0.0000
      8 C         138.0005  138.3911  166.5635 C.ar    1  UNL1        0.0000
      9 C         138.0081  139.7553  165.9399 C.ar    1  UNL1        0.0000
     10 C         138.4523  139.9273  164.5176 C.ar    1  UNL1        0.0000
     11 C         138.8887  138.7351  163.7188 C.ar    1  UNL1        0.0000
     12 C         138.8811  137.3709  164.3424 C.ar    1  UNL1        0.0000
     13 O         138.4829  145.3842  162.0233 O.3     1  UNL1       -0.4755
     14 C         139.7682  146.1488  161.9078 C.3     1  UNL1        0.2054
     15 C         141.0777  145.4531  162.1339 C.3     1  UNL1        0.0474
     16 C         141.6948  145.4419  163.5011 C.3     1  UNL1        0.0053
     17 C         142.3014  144.1803  164.0399 C.3     1  UNL1        0.0174
     18 C         141.5301  143.3302  165.0055 C.3     1  UNL1        0.0721
     19 N         141.7711  141.8507  165.0606 N.3     1  UNL1       -0.2727
     20 C         142.2753  141.1273  163.8471 C.3     1  UNL1        0.0721
     21 C         142.5162  139.6478  163.9021 C.3     1  UNL1        0.0174
     22 C         142.2530  138.8917  165.1707 C.3     1  UNL1        0.0029
     23 C         141.7489  139.6152  166.3841 C.3     1  UNL1        0.0174
     24 C         141.5079  141.0947  166.3291 C.3     1  UNL1        0.0721
@<TRIPOS>BOND
     1     7     8   ar
     2     8     9   ar
     3     9    10   ar
     4    10     1    1
     5     1     2   ar
     6     2     3   ar
     7     3     4   ar
     8     4    13    1
     9    13    14    1
    10    14    15    1
    11    15    16    1
    12    16    17    1
    13    17    18    1
    14    18    19    1
    15    19    20    1
    16    20    21    1
    17    21    22    1
    18    22    23    1
    19    23    24    1
    20     4     5   ar
    21     5     6   ar
    22    10    11   ar
    23    11    12   ar
    24    12     7   ar
    25     6     1   ar
    26    24    19    1
@<TRIPOS>MOLECULE
*****
 24 26 0 0 0
SMALL
GASTEIGER

@<TRIPOS>ATOM
      1 C         140.0976  141.1281  166.5831 C.ar    1  UNL1        0.0002
      2 C         139.2590  139.9222  166.2793 C.ar    1  UNL1        0.0031
      3 C         138.3039  139.9448  165.1229 C.ar    1  UNL1        0.0369
      4 C         138.1874  141.1734  164.2703 C.ar    1  UNL1        0.1386
      5 C         139.0260  142.3794  164.5741 C.ar    1  UNL1        0.0369
      6 C         139.9811  142.3567  165.7305 C.ar    1  UNL1        0.0031
      7 C         142.9630  141.0603  170.0522 C.ar    1  UNL1        0.0000
      8 C         142.0036  139.9252  169.8496 C.ar    1  UNL1        0.0000
      9 C         141.0485  139.9478  168.6932 C.ar    1  UNL1        0.0000
     10 C         141.0528  141.1055  167.7395 C.ar    1  UNL1        0.0000
     11 C         142.0122  142.2406  167.9421 C.ar    1  UNL1        0.0000
     12 C         142.9673  142.2180  169.0985 C.ar    1  UNL1        0.0000
     13 O         137.2323  141.1960  163.1139 O.3     1  UNL1       -0.4755
     14 C         137.6778  140.7181  161.7637 C.3     1  UNL1        0.2054
     15 C         137.3597  139.3209  161.3201 C.3     1  UNL1        0.0474
     16 C         138.1864  138.1708  161.8138 C.3     1  UNL1        0.0053
     17 C         139.6774  138.3048  161.9080 C.3     1  UNL1        0.0174
     18 C         140.4157  137.6802  163.0546 C.3     1  UNL1        0.0721
     19 N         141.4434  138.4734  163.8061 N.3     1  UNL1       -0.2727
     20 C         142.0893  137.8951  165.0302 C.3     1  UNL1        0.0721
     21 C         143.1170  138.6882  165.7817 C.3     1  UNL1        0.0174
     22 C         143.4988  140.0597  165.3091 C.3     1  UNL1        0.0029
     23 C         142.8529  140.6380  164.0850 C.3     1  UNL1        0.0174
     24 C         141.8252  139.8448  163.3335 C.3     1  UNL1        0.0721
@<TRIPOS>BOND
     1     7     8   ar
     2     8     9   ar
     3     9    10   ar
     4    10     1    1
     5     1     2   ar
     6     2     3   ar
     7     3     4   ar
     8     4    13    1
     9    13    14    1
    10    14    15    1
    11    15    16    1
    12    16    17    1
    13    17    18    1
    14    18    19    1
    15    19    20    1
    16    20    21    1
    17    21    22    1
    18    22    23    1
    19    23    24    1
    20     4     5   ar
    21     5     6   ar
    22    10    11   ar
    23    11    12   ar
    24    12     7   ar
    25     6     1   ar
    26    24    19    1
@<TRIPOS>MOLECULE
*****
 24 26 0 0 0
SMALL
GASTEIGER

@<TRIPOS>ATOM
      1 C         142.1007  140.8268  167.0372 C.ar    1  UNL1        0.0002
      2 C         142.6384  141.8656  166.0982 C.ar    1  UNL1        0.0031
      3 C         143.5379  141.4614  164.9680 C.ar    1  UNL1        0.0369
      4 C         143.8998  140.0184  164.7768 C.ar    1  UNL1        0.1386
      5 C         143.3621  138.9796  165.7157 C.ar    1  UNL1        0.0369
      6 C         142.4625  139.3838  166.8460 C.ar    1  UNL1        0.0031
      7 C         139.4020  142.0395  170.4279 C.ar    1  UNL1        0.0000
      8 C         139.3849  140.6268  169.9242 C.ar    1  UNL1        0.0000
      9 C         140.2845  140.2225  168.7939 C.ar    1  UNL1        0.0000
     10 C         141.2011  141.2311  168.1674 C.ar    1  UNL1        0.0000
     11 C         141.2182  142.6438  168.6711 C.ar    1  UNL1        0.0000
     12 C         140.3186  143.0481  169.8013 C.ar    1  UNL1        0.0000
     13 O         144.7993  139.6141  163.6466 O.3     1  UNL1       -0.4755
     14 C         144.5128  140.0895  162.2531 C.3     1  UNL1        0.2054
     15 C         143.3783  139.4914  161.4750 C.3     1  UNL1        0.0474
     16 C         142.9815  138.0633  161.7055 C.3     1  UNL1        0.0053
     17 C         141.5392  137.7109  161.9194 C.3     1  UNL1        0.0174
     18 C         141.0468  137.3683  163.2942 C.3     1  UNL1        0.0721
     19 N         140.1950  138.3442  164.0506 N.3     1  UNL1       -0.2727
     20 C         140.2678  139.8080  163.7312 C.3     1  UNL1        0.0721
     21 C         139.4160  140.7839  164.4876 C.3     1  UNL1        0.0174
     22 C         138.4915  140.2960  165.5633 C.3     1  UNL1        0.0029
     23 C         138.4187  138.8322  165.8827 C.3     1  UNL1        0.0174
     24 C         139.2705  137.8563  165.1263 C.3     1  UNL1        0.0721
@<TRIPOS>BOND
     1     7     8   ar
     2     8     9   ar
     3     9    10   ar
     4    10     1    1
     5     1     2   ar
     6     2     3   ar
     7     3     4   ar
     8     4    13    1
     9    13    14    1
    10    14    15    1
    11    15    16    1
    12    16    17    1
    13    17    18    1
    14    18    19    1
    15    19    20    1
    16    20    21    1
    17    21    22    1
    18    22    23    1
    19    23    24    1
    20     4     5   ar
    21     5     6   ar
    22    10    11   ar
    23    11    12   ar
    24    12     7   ar
    25     6     1   ar
    26    24    19    1
@<TRIPOS>MOLECULE
*****
 24 26 0 0 0
SMALL
GASTEIGER

@<TRIPOS>ATOM
      1 C         139.5775  140.7121  166.9286 C.ar    1  UNL1        0.0002
      2 C         139.6977  141.5479  165.6889 C.ar    1  UNL1        0.0031
      3 C         139.1712  141.0321  164.3826 C.ar    1  UNL1        0.0369
      4 C         138.5244  139.6803  164.3159 C.ar    1  UNL1        0.1386
      5 C         138.4043  138.8445  165.5555 C.ar    1  UNL1        0.0369
      6 C         138.9308  139.3604  166.8619 C.ar    1  UNL1        0.0031
      7 C         141.1572  142.2597  170.8477 C.ar    1  UNL1        0.0000
      8 C         140.8041  140.8093  170.7017 C.ar    1  UNL1        0.0000
      9 C         140.2775  140.2934  169.3953 C.ar    1  UNL1        0.0000
     10 C         140.1041  141.2280  168.2350 C.ar    1  UNL1        0.0000
     11 C         140.4571  142.6785  168.3810 C.ar    1  UNL1        0.0000
     12 C         140.9837  143.1943  169.6874 C.ar    1  UNL1        0.0000
     13 O         137.9979  139.1644  163.0095 O.3     1  UNL1       -0.4755
     14 C         138.6225  137.9584  162.3728 C.3     1  UNL1        0.2054
     15 C         140.1157  137.8230  162.3272 C.3     1  UNL1        0.0474
     16 C         140.8384  137.1125  163.4331 C.3     1  UNL1        0.0053
     17 C         141.8233  137.8571  164.2850 C.3     1  UNL1        0.0174
     18 C         142.7581  138.8487  163.6583 C.3     1  UNL1        0.0721
     19 N         142.8843  140.2280  164.2340 N.3     1  UNL1       -0.2727
     20 C         142.7246  141.4280  163.3481 C.3     1  UNL1        0.0721
     21 C         142.8509  142.8073  163.9238 C.3     1  UNL1        0.0174
     22 C         143.1368  142.9867  165.3854 C.3     1  UNL1        0.0029
     23 C         143.2965  141.7868  166.2712 C.3     1  UNL1        0.0174
     24 C         143.1703  140.4075  165.6955 C.3     1  UNL1        0.0721
@<TRIPOS>BOND
     1     7     8   ar
     2     8     9   ar
     3     9    10   ar
     4    10     1    1
     5     1     2   ar
     6     2     3   ar
     7     3     4   ar
     8     4    13    1
     9    13    14    1
    10    14    15    1
    11    15    16    1
    12    16    17    1
    13    17    18    1
    14    18    19    1
    15    19    20    1
    16    20    21    1
    17    21    22    1
    18    22    23    1
    19    23    24    1
    20     4     5   ar
    21     5     6   ar
    22    10    11   ar
    23    11    12   ar
    24    12     7   ar
    25     6     1   ar
    26    24    19    1
@<TRIPOS>MOLECULE
*****
 24 26 0 0 0
SMALL
GASTEIGER

@<TRIPOS>ATOM
      1 C         140.7492  140.3357  167.2908 C.ar    1  UNL1        0.0002
      2 C         139.2614  140.1461  167.2757 C.ar    1  UNL1        0.0031
      3 C         138.6318  139.2333  166.2656 C.ar    1  UNL1        0.0369
      4 C         139.4901  138.5101  165.2705 C.ar    1  UNL1        0.1386
      5 C         140.9779  138.6997  165.2856 C.ar    1  UNL1        0.0369
      6 C         141.6075  139.6125  166.2958 C.ar    1  UNL1        0.0031
      7 C         142.6380  143.0741  170.3214 C.ar    1  UNL1        0.0000
      8 C         143.4445  141.9723  169.7006 C.ar    1  UNL1        0.0000
      9 C         142.8150  141.0595  168.6904 C.ar    1  UNL1        0.0000
     10 C         141.3788  141.2485  168.3010 C.ar    1  UNL1        0.0000
     11 C         140.5722  142.3503  168.9218 C.ar    1  UNL1        0.0000
     12 C         141.2018  143.2630  169.9320 C.ar    1  UNL1        0.0000
     13 O         138.8605  137.5973  164.2603 O.3     1  UNL1       -0.4755
     14 C         139.2221  137.7207  162.8098 C.3     1  UNL1        0.2054
     15 C         138.1597  138.0240  161.7952 C.3     1  UNL1        0.0474
     16 C         137.7477  139.4440  161.5422 C.3     1  UNL1        0.0053
     17 C         137.5469  140.3833  162.6943 C.3     1  UNL1        0.0174
     18 C         138.0033  141.8082  162.5887 C.3     1  UNL1        0.0721
     19 N         139.0931  142.3152  163.4860 N.3     1  UNL1       -0.2727
     20 C         140.5293  142.0441  163.1485 C.3     1  UNL1        0.0721
     21 C         141.6192  142.5511  164.0458 C.3     1  UNL1        0.0174
     22 C         141.2728  143.3292  165.2807 C.3     1  UNL1        0.0029
     23 C         139.8366  143.6002  165.6181 C.3     1  UNL1        0.0174
     24 C         138.7468  143.0932  164.7208 C.3     1  UNL1        0.0721
@<TRIPOS>BOND
     1     7     8   ar
     2     8     9   ar
     3     9    10   ar
     4    10     1    1
     5     1     2   ar
     6     2     3   ar
     7     3     4   ar
     8     4    13    1
     9    13    14    1
    10    14    15    1
    11    15    16    1
    12    16    17    1
    13    17    18    1
    14    18    19    1
    15    19    20    1
    16    20    21    1
    17    21    22    1
    18    22    23    1
    19    23    24    1
    20     4     5   ar
    21     5     6   ar
    22    10    11   ar
    23    11    12   ar
    24    12     7   ar
    25     6     1   ar
    26    24    19    1
@<TRIPOS>MOLECULE
*****
 24 26 0 0 0
SMALL
GASTEIGER

@<TRIPOS>ATOM
      1 C         140.7030  140.3477  167.3592 C.ar    1  UNL1        0.0002
      2 C         139.2433  140.0276  167.4881 C.ar    1  UNL1        0.0031
      3 C         138.5911  139.0939  166.5120 C.ar    1  UNL1        0.0369
      4 C         139.3986  138.4803  165.4068 C.ar    1  UNL1        0.1386
      5 C         140.8583  138.8005  165.2779 C.ar    1  UNL1        0.0369
      6 C         141.5105  139.7342  166.2540 C.ar    1  UNL1        0.0031
      7 C         142.6595  143.1488  170.2876 C.ar    1  UNL1        0.0000
      8 C         141.1951  143.2780  169.9900 C.ar    1  UNL1        0.0000
      9 C         140.5429  142.3443  169.0139 C.ar    1  UNL1        0.0000
     10 C         141.3552  141.2814  168.3353 C.ar    1  UNL1        0.0000
     11 C         142.8196  141.1522  168.6329 C.ar    1  UNL1        0.0000
     12 C         143.4718  142.0859  169.6091 C.ar    1  UNL1        0.0000
     13 O         138.7464  137.5466  164.4307 O.3     1  UNL1       -0.4755
     14 C         139.1173  137.6011  162.9783 C.3     1  UNL1        0.2054
     15 C         138.2616  138.3679  162.0140 C.3     1  UNL1        0.0474
     16 C         138.8943  139.0982  160.8666 C.3     1  UNL1        0.0053
     17 C         139.3777  140.5064  161.0490 C.3     1  UNL1        0.0174
     18 C         140.5598  140.7855  161.9291 C.3     1  UNL1        0.0721
     19 N         140.4087  141.6731  163.1289 N.3     1  UNL1       -0.2727
     20 C         139.0675  141.8288  163.7824 C.3     1  UNL1        0.0721
     21 C         138.9164  142.7164  164.9821 C.3     1  UNL1        0.0174
     22 C         140.1065  143.4481  165.5284 C.3     1  UNL1        0.0029
     23 C         141.4476  143.2923  164.8749 C.3     1  UNL1        0.0174
     24 C         141.5987  142.4048  163.6751 C.3     1  UNL1        0.0721
@<TRIPOS>BOND
     1     7     8   ar
     2     8     9   ar
     3     9    10   ar
     4    10     1    1
     5     1     2   ar
     6     2     3   ar
     7     3     4   ar
     8     4    13    1
     9    13    14    1
    10    14    15    1
    11    15    16    1
    12    16    17    1
    13    17    18    1
    14    18    19    1
    15    19    20    1
    16    20    21    1
    17    21    22    1
    18    22    23    1
    19    23    24    1
    20     4     5   ar
    21     5     6   ar
    22    10    11   ar
    23    11    12   ar
    24    12     7   ar
    25     6     1   ar
    26    24    19    1
@<TRIPOS>MOLECULE
*****
 24 26 0 0 0
SMALL
GASTEIGER

@<TRIPOS>ATOM
      1 C         140.7303  140.1595  167.1769 C.ar    1  UNL1        0.0002
      2 C         139.2426  139.9723  167.1343 C.ar    1  UNL1        0.0031
      3 C         138.6319  139.0458  166.1251 C.ar    1  UNL1        0.0369
      4 C         139.5088  138.3064  165.1585 C.ar    1  UNL1        0.1386
      5 C         140.9964  138.4935  165.2012 C.ar    1  UNL1        0.0369
      6 C         141.6072  139.4201  166.2104 C.ar    1  UNL1        0.0031
      7 C         142.5624  142.9393  170.2045 C.ar    1  UNL1        0.0000
      8 C         141.1891  143.2147  169.6680 C.ar    1  UNL1        0.0000
      9 C         140.5783  142.2881  168.6588 C.ar    1  UNL1        0.0000
     10 C         141.3410  141.0861  168.1861 C.ar    1  UNL1        0.0000
     11 C         142.7144  140.8106  168.7227 C.ar    1  UNL1        0.0000
     12 C         143.3251  141.7372  169.7318 C.ar    1  UNL1        0.0000
     13 O         138.8981  137.3798  164.1494 O.3     1  UNL1       -0.4755
     14 C         138.6252  137.8632  162.7559 C.3     1  UNL1        0.2054
     15 C         138.2187  139.2881  162.5225 C.3     1  UNL1        0.0474
     16 C         139.2021  140.2639  161.9472 C.3     1  UNL1        0.0053
     17 C         140.6534  139.8973  161.8506 C.3     1  UNL1        0.0174
     18 C         141.6961  140.9737  161.7862 C.3     1  UNL1        0.0721
     19 N         142.2856  141.5235  163.0512 N.3     1  UNL1       -0.2727
     20 C         143.6708  141.1262  163.4678 C.3     1  UNL1        0.0721
     21 C         144.2603  141.6760  164.7327 C.3     1  UNL1        0.0174
     22 C         143.4646  142.6232  165.5812 C.3     1  UNL1        0.0029
     23 C         142.0795  143.0205  165.1646 C.3     1  UNL1        0.0174
     24 C         141.4900  142.4706  163.8996 C.3     1  UNL1        0.0721
@<TRIPOS>BOND
     1     7     8   ar
     2     8     9   ar
     3     9    10   ar
     4    10     1    1
     5     1     2   ar
     6     2     3   ar
     7     3     4   ar
     8     4    13    1
     9    13    14    1
    10    14    15    1
    11    15    16    1
    12    16    17    1
    13    17    18    1
    14    18    19    1
    15    19    20    1
    16    20    21    1
    17    21    22    1
    18    22    23    1
    19    23    24    1
    20     4     5   ar
    21     5     6   ar
    22    10    11   ar
    23    11    12   ar
    24    12     7   ar
    25     6     1   ar
    26    24    19    1
@<TRIPOS>MOLECULE
*****
 24 26 0 0 0
SMALL
GASTEIGER

@<TRIPOS>ATOM
      1 C         140.0668  140.2576  166.2765 C.ar    1  UNL1        0.0002
      2 C         141.0236  140.6911  165.2057 C.ar    1  UNL1        0.0031
      3 C         141.0720  139.9543  163.9001 C.ar    1  UNL1        0.0369
      4 C         140.1637  138.7839  163.6652 C.ar    1  UNL1        0.1386
      5 C         139.2070  138.3504  164.7360 C.ar    1  UNL1        0.0369
      6 C         139.1585  139.0873  166.0417 C.ar    1  UNL1        0.0031
      7 C         139.9215  142.4682  170.1934 C.ar    1  UNL1        0.0000
      8 C         140.5215  143.1229  168.9846 C.ar    1  UNL1        0.0000
      9 C         140.5699  142.3860  167.6789 C.ar    1  UNL1        0.0000
     10 C         140.0184  140.9945  167.5821 C.ar    1  UNL1        0.0000
     11 C         139.4184  140.3398  168.7910 C.ar    1  UNL1        0.0000
     12 C         139.3700  141.0767  170.0966 C.ar    1  UNL1        0.0000
     13 O         140.2122  138.0471  162.3596 O.3     1  UNL1       -0.4755
     14 C         139.0430  138.1053  161.4217 C.3     1  UNL1        0.2054
     15 C         137.7939  138.8316  161.8244 C.3     1  UNL1        0.0474
     16 C         137.6743  140.3076  161.5851 C.3     1  UNL1        0.0053
     17 C         138.8319  141.0708  161.0129 C.3     1  UNL1        0.0174
     18 C         138.8643  142.5674  161.1085 C.3     1  UNL1        0.0721
     19 N         138.9519  143.2315  162.4506 N.3     1  UNL1       -0.2727
     20 C         137.7067  143.4686  163.2527 C.3     1  UNL1        0.0721
     21 C         137.7943  144.1327  164.5949 C.3     1  UNL1        0.0174
     22 C         139.1270  144.5596  165.1349 C.3     1  UNL1        0.0029
     23 C         140.3721  144.3225  164.3328 C.3     1  UNL1        0.0174
     24 C         140.2846  143.6584  162.9906 C.3     1  UNL1        0.0721
@<TRIPOS>BOND
     1     7     8   ar
     2     8     9   ar
     3     9    10   ar
     4    10     1    1
     5     1     2   ar
     6     2     3   ar
     7     3     4   ar
     8     4    13    1
     9    13    14    1
    10    14    15    1
    11    15    16    1
    12    16    17    1
    13    17    18    1
    14    18    19    1
    15    19    20    1
    16    20    21    1
    17    21    22    1
    18    22    23    1
    19    23    24    1
    20     4     5   ar
    21     5     6   ar
    22    10    11   ar
    23    11    12   ar
    24    12     7   ar
    25     6     1   ar
    26    24    19    1
@<TRIPOS>MOLECULE
*****
 24 26 0 0 0
SMALL
GASTEIGER

@<TRIPOS>ATOM
      1 C         141.5505  142.4512  166.5290 C.ar    1  UNL1        0.0002
      2 C         140.8434  143.0915  165.3715 C.ar    1  UNL1        0.0031
      3 C         141.6334  143.6398  164.2203 C.ar    1  UNL1        0.0369
      4 C         143.1305  143.5477  164.2266 C.ar    1  UNL1        0.1386
      5 C         143.8376  142.9074  165.3841 C.ar    1  UNL1        0.0369
      6 C         143.0476  142.3591  166.5354 C.ar    1  UNL1        0.0031
      7 C         139.1805  140.8064  169.9827 C.ar    1  UNL1        0.0000
      8 C         139.3262  140.0045  168.7235 C.ar    1  UNL1        0.0000
      9 C         140.1162  140.5527  167.5723 C.ar    1  UNL1        0.0000
     10 C         140.7605  141.9029  167.6803 C.ar    1  UNL1        0.0000
     11 C         140.6148  142.7049  168.9394 C.ar    1  UNL1        0.0000
     12 C         139.8248  142.1567  170.0907 C.ar    1  UNL1        0.0000
     13 O         143.9205  144.0960  163.0754 O.3     1  UNL1       -0.4755
     14 C         144.5280  143.1626  162.0705 C.3     1  UNL1        0.2054
     15 C         143.8843  142.9844  160.7274 C.3     1  UNL1        0.0474
     16 C         142.4058  142.7508  160.6294 C.3     1  UNL1        0.0053
     17 C         141.7842  141.5769  161.3263 C.3     1  UNL1        0.0174
     18 C         142.5560  140.2997  161.4778 C.3     1  UNL1        0.0721
     19 N         142.9509  139.8194  162.8428 N.3     1  UNL1       -0.2727
     20 C         141.8976  139.3870  163.8195 C.3     1  UNL1        0.0721
     21 C         142.2925  138.9067  165.1845 C.3     1  UNL1        0.0174
     22 C         143.7406  138.8588  165.5729 C.3     1  UNL1        0.0029
     23 C         144.7938  139.2913  164.5963 C.3     1  UNL1        0.0174
     24 C         144.3989  139.7716  163.2312 C.3     1  UNL1        0.0721
@<TRIPOS>BOND
     1     7     8   ar
     2     8     9   ar
     3     9    10   ar
     4    10     1    1
     5     1     2   ar
     6     2     3   ar
     7     3     4   ar
     8     4    13    1
     9    13    14    1
    10    14    15    1
    11    15    16    1
    12    16    17    1
    13    17    18    1
    14    18    19    1
    15    19    20    1
    16    20    21    1
    17    21    22    1
    18    22    23    1
    19    23    24    1
    20     4     5   ar
    21     5     6   ar
    22    10    11   ar
    23    11    12   ar
    24    12     7   ar
    25     6     1   ar
    26    24    19    1
