@<TRIPOS>MOLECULE
*****
 24 26 0 0 0
SMALL
GASTEIGER

@<TRIPOS>ATOM
      1 C         138.0618  140.1965  163.9308 C.3     1  UNL1        0.1604
      2 C         140.0147  145.2036  161.2634 C.2     1  UNL1        0.4049
      3 O         139.1957  146.4583  161.3319 O.2     1  UNL1       -0.2262
      4 N         139.5265  143.9518  161.9302 N.am    1  UNL1       -0.2432
      5 C         140.3456  142.6971  161.8617 C.3     1  UNL1        0.1141
      6 C         139.8573  141.4453  162.5285 C.3     1  UNL1        0.0944
      7 N         138.5500  141.4483  163.2639 N.3     1  UNL1       -0.2619
      8 C         137.7309  142.7030  163.3325 C.3     1  UNL1        0.0944
      9 C         138.2192  143.9548  162.6656 C.3     1  UNL1        0.1141
     10 O         141.3221  145.2006  160.5280 O.3     1  UNL1       -0.4345
     11 C         140.0877  144.5820  158.3271 C.3     1  UNL1        0.0513
     12 C         141.3506  144.9463  159.0500 C.3     1  UNL1        0.2102
     13 C         138.3673  139.9498  165.3784 C.ar    1  UNL1        0.2426
     14 N         137.6867  138.9495  166.2652 N.ar    1  UNL1       -0.1099
     15 N         138.3060  139.0415  167.6284 N.ar    1  UNL1       -0.1072
     16 C         139.3693  140.0987  167.5841 C.ar    1  UNL1        0.2497
     17 O         139.4072  140.6600  166.1936 O.2     1  UNL1       -0.4181
     18 C         140.2415  140.5204  168.7291 C.ar    1  UNL1        0.0560
     19 C         139.8074  140.2545  170.1401 C.ar    1  UNL1        0.0048
     20 C         140.6797  140.6763  171.2852 C.ar    1  UNL1        0.0010
     21 C         141.9860  141.3640  171.0194 C.ar    1  UNL1        0.0114
     22 C         142.4201  141.6299  169.6084 C.ar    1  UNL1        0.0578
     23 CL        143.7264  142.3175  169.3425 Cl      1  UNL1       -0.0822
     24 C         141.5478  141.2081  168.4633 C.ar    1  UNL1        0.0161
@<TRIPOS>BOND
     1    11    12    1
     2    12    10    1
     3    10     2    1
     4     2     3    2
     5     2     4   am
     6     4     5    1
     7     5     6    1
     8     6     7    1
     9     7     1    1
    10     1    13    1
    11    13    14   ar
    12    14    15   ar
    13    15    16   ar
    14    16    18    1
    15    18    19   ar
    16    19    20   ar
    17    20    21   ar
    18    21    22   ar
    19    22    23    1
    20    22    24   ar
    21    16    17   ar
    22     7     8    1
    23     8     9    1
    24     9     4    1
    25    17    13   ar
    26    24    18   ar
@<TRIPOS>MOLECULE
*****
 24 26 0 0 0
SMALL
GASTEIGER

@<TRIPOS>ATOM
      1 C         138.8964  138.0944  164.2738 C.3     1  UNL1        0.1604
      2 C         143.4384  139.8722  160.7796 C.2     1  UNL1        0.4049
      3 O         144.3229  138.8539  160.1234 O.2     1  UNL1       -0.2262
      4 N         142.3029  139.4278  161.6532 N.am    1  UNL1       -0.2432
      5 C         141.4185  140.4461  162.3095 C.3     1  UNL1        0.1141
      6 C         140.2830  140.0016  163.1830 C.3     1  UNL1        0.0944
      7 N         140.0319  138.5388  163.4003 N.3     1  UNL1       -0.2619
      8 C         140.9164  137.5205  162.7440 C.3     1  UNL1        0.0944
      9 C         142.0519  137.9650  161.8704 C.3     1  UNL1        0.1141
     10 O         143.6895  141.3350  160.5624 O.3     1  UNL1       -0.4345
     11 C         144.3048  143.4323  161.9670 C.3     1  UNL1        0.0513
     12 C         144.6539  142.0697  161.4456 C.3     1  UNL1        0.2102
     13 C         138.8035  138.5823  165.6892 C.ar    1  UNL1        0.2426
     14 N         137.6751  138.3166  166.6411 N.ar    1  UNL1       -0.1099
     15 N         137.9969  138.9918  167.9415 N.ar    1  UNL1       -0.1072
     16 C         139.3242  139.6747  167.7931 C.ar    1  UNL1        0.2497
     17 O         139.8227  139.4217  166.4012 O.2     1  UNL1       -0.4181
     18 C         140.0291  140.4709  168.8509 C.ar    1  UNL1        0.0560
     19 C         140.8688  139.7735  169.8798 C.ar    1  UNL1        0.0048
     20 C         141.5737  140.5697  170.9376 C.ar    1  UNL1        0.0010
     21 C         141.4391  142.0633  170.9666 C.ar    1  UNL1        0.0114
     22 C         140.5995  142.7609  169.9377 C.ar    1  UNL1        0.0578
     23 CL        140.4649  144.2545  169.9667 Cl      1  UNL1       -0.0822
     24 C         139.8945  141.9646  168.8799 C.ar    1  UNL1        0.0161
@<TRIPOS>BOND
     1    11    12    1
     2    12    10    1
     3    10     2    1
     4     2     3    2
     5     2     4   am
     6     4     5    1
     7     5     6    1
     8     6     7    1
     9     7     1    1
    10     1    13    1
    11    13    14   ar
    12    14    15   ar
    13    15    16   ar
    14    16    18    1
    15    18    19   ar
    16    19    20   ar
    17    20    21   ar
    18    21    22   ar
    19    22    23    1
    20    22    24   ar
    21    16    17   ar
    22     7     8    1
    23     8     9    1
    24     9     4    1
    25    17    13   ar
    26    24    18   ar
@<TRIPOS>MOLECULE
*****
 24 26 0 0 0
SMALL
GASTEIGER

@<TRIPOS>ATOM
      1 C         138.7584  138.0455  164.3479 C.3     1  UNL1        0.1604
      2 C         138.3728  141.8377  159.7142 C.2     1  UNL1        0.4049
      3 O         137.9658  141.3311  158.3623 O.2     1  UNL1       -0.2262
      4 N         138.4692  140.8897  160.8726 N.am    1  UNL1       -0.2432
      5 C         138.8762  141.3963  162.2245 C.3     1  UNL1        0.1141
      6 C         138.9726  140.4482  163.3829 C.3     1  UNL1        0.0944
      7 N         138.6620  138.9936  163.1895 N.3     1  UNL1       -0.2619
      8 C         138.2550  138.4870  161.8376 C.3     1  UNL1        0.0944
      9 C         138.1586  139.4350  160.6792 C.3     1  UNL1        0.1141
     10 O         138.6833  143.2923  159.9077 O.3     1  UNL1       -0.4345
     11 C         140.3574  145.2731  159.7514 C.3     1  UNL1        0.0513
     12 C         140.0682  143.8050  159.6446 C.3     1  UNL1        0.2102
     13 C         138.7201  138.5710  165.7523 C.ar    1  UNL1        0.2426
     14 N         137.6049  138.3764  166.7364 N.ar    1  UNL1       -0.1099
     15 N         137.9858  139.0685  168.0116 N.ar    1  UNL1       -0.1072
     16 C         139.3364  139.6909  167.8155 C.ar    1  UNL1        0.2497
     17 O         139.7902  139.3835  166.4192 O.2     1  UNL1       -0.4181
     18 C         140.0993  140.4819  168.8364 C.ar    1  UNL1        0.0560
     19 C         141.0239  139.7832  169.7887 C.ar    1  UNL1        0.0048
     20 C         141.7868  140.5742  170.8097 C.ar    1  UNL1        0.0010
     21 C         141.6251  142.0639  170.8783 C.ar    1  UNL1        0.0114
     22 C         140.7004  142.7626  169.9260 C.ar    1  UNL1        0.0578
     23 CL        140.5387  144.2523  169.9946 Cl      1  UNL1       -0.0822
     24 C         139.9376  141.9715  168.9051 C.ar    1  UNL1        0.0161
@<TRIPOS>BOND
     1    11    12    1
     2    12    10    1
     3    10     2    1
     4     2     3    2
     5     2     4   am
     6     4     5    1
     7     5     6    1
     8     6     7    1
     9     7     1    1
    10     1    13    1
    11    13    14   ar
    12    14    15   ar
    13    15    16   ar
    14    16    18    1
    15    18    19   ar
    16    19    20   ar
    17    20    21   ar
    18    21    22   ar
    19    22    23    1
    20    22    24   ar
    21    16    17   ar
    22     7     8    1
    23     8     9    1
    24     9     4    1
    25    17    13   ar
    26    24    18   ar
@<TRIPOS>MOLECULE
*****
 24 26 0 0 0
SMALL
GASTEIGER

@<TRIPOS>ATOM
      1 C         141.4618  138.7400  157.9621 C.3     1  UNL1        0.1604
      2 C         140.2510  137.5794  163.7229 C.2     1  UNL1        0.4049
      3 O         141.3546  137.1734  164.6542 O.2     1  UNL1       -0.2262
      4 N         140.5537  137.8696  162.2827 N.am    1  UNL1       -0.2432
      5 C         139.4502  138.2755  161.3514 C.3     1  UNL1        0.1141
      6 C         139.7529  138.5657  159.9112 C.3     1  UNL1        0.0944
      7 N         141.1591  138.4499  159.4023 N.3     1  UNL1       -0.2619
      8 C         142.2626  138.0439  160.3336 C.3     1  UNL1        0.0944
      9 C         141.9599  137.7537  161.7738 C.3     1  UNL1        0.1141
     10 O         138.8448  137.6952  164.2319 O.3     1  UNL1       -0.4345
     11 C         138.0308  138.6120  166.5225 C.3     1  UNL1        0.0513
     12 C         138.4557  138.8519  165.1040 C.3     1  UNL1        0.2102
     13 C         142.3170  137.7957  157.1705 C.ar    1  UNL1        0.2426
     14 N         143.6819  138.0906  156.6226 N.ar    1  UNL1       -0.1099
     15 N         144.1660  136.8677  155.9012 N.ar    1  UNL1       -0.1072
     16 C         143.1003  135.8171  156.0032 C.ar    1  UNL1        0.2497
     17 O         141.9576  136.3905  156.7876 O.2     1  UNL1       -0.4181
     18 C         143.1657  134.4356  155.4227 C.ar    1  UNL1        0.0560
     19 C         142.3714  134.0992  154.1956 C.ar    1  UNL1        0.0048
     20 C         142.4368  132.7177  153.6151 C.ar    1  UNL1        0.0010
     21 C         143.2967  131.6724  154.2616 C.ar    1  UNL1        0.0114
     22 C         144.0912  132.0087  155.4888 C.ar    1  UNL1        0.0578
     23 CL        144.9510  130.9635  156.1354 Cl      1  UNL1       -0.0822
     24 C         144.0256  133.3903  156.0693 C.ar    1  UNL1        0.0161
@<TRIPOS>BOND
     1    11    12    1
     2    12    10    1
     3    10     2    1
     4     2     3    2
     5     2     4   am
     6     4     5    1
     7     5     6    1
     8     6     7    1
     9     7     1    1
    10     1    13    1
    11    13    14   ar
    12    14    15   ar
    13    15    16   ar
    14    16    18    1
    15    18    19   ar
    16    19    20   ar
    17    20    21   ar
    18    21    22   ar
    19    22    23    1
    20    22    24   ar
    21    16    17   ar
    22     7     8    1
    23     8     9    1
    24     9     4    1
    25    17    13   ar
    26    24    18   ar
@<TRIPOS>MOLECULE
*****
 24 26 0 0 0
SMALL
GASTEIGER

@<TRIPOS>ATOM
      1 C         138.8493  137.6427  164.2127 C.3     1  UNL1        0.1604
      2 C         142.8375  138.6796  159.8517 C.2     1  UNL1        0.4049
      3 O         144.3058  138.5600  160.1341 O.2     1  UNL1       -0.2262
      4 N         141.8404  138.4204  160.9419 N.am    1  UNL1       -0.2432
      5 C         140.3722  138.5401  160.6595 C.3     1  UNL1        0.1141
      6 C         139.3751  138.2809  161.7498 C.3     1  UNL1        0.0944
      7 N         139.8463  137.9020  163.1225 N.3     1  UNL1       -0.2619
      8 C         141.3146  137.7823  163.4049 C.3     1  UNL1        0.0944
      9 C         142.3117  138.0415  162.3146 C.3     1  UNL1        0.1141
     10 O         142.3663  139.0585  158.4790 O.3     1  UNL1       -0.4345
     11 C         142.5238  136.8190  157.1714 C.3     1  UNL1        0.0513
     12 C         142.8350  138.2821  157.2842 C.3     1  UNL1        0.2102
     13 C         138.9668  138.3629  165.5233 C.ar    1  UNL1        0.2426
     14 N         137.9738  138.3170  166.6466 N.ar    1  UNL1       -0.1099
     15 N         138.4913  139.1812  167.7583 N.ar    1  UNL1       -0.1072
     16 C         139.8041  139.7611  167.3219 C.ar    1  UNL1        0.2497
     17 O         140.0979  139.2553  165.9406 O.2     1  UNL1       -0.4181
     18 C         140.6707  140.6845  168.1256 C.ar    1  UNL1        0.0560
     19 C         142.0870  140.3016  168.4381 C.ar    1  UNL1        0.0048
     20 C         142.9537  141.2251  169.2418 C.ar    1  UNL1        0.0010
     21 C         142.4042  142.5314  169.7331 C.ar    1  UNL1        0.0114
     22 C         140.9878  142.9144  169.4207 C.ar    1  UNL1        0.0578
     23 CL        140.4383  144.2208  169.9120 Cl      1  UNL1       -0.0822
     24 C         140.1212  141.9908  168.6169 C.ar    1  UNL1        0.0161
@<TRIPOS>BOND
     1    11    12    1
     2    12    10    1
     3    10     2    1
     4     2     3    2
     5     2     4   am
     6     4     5    1
     7     5     6    1
     8     6     7    1
     9     7     1    1
    10     1    13    1
    11    13    14   ar
    12    14    15   ar
    13    15    16   ar
    14    16    18    1
    15    18    19   ar
    16    19    20   ar
    17    20    21   ar
    18    21    22   ar
    19    22    23    1
    20    22    24   ar
    21    16    17   ar
    22     7     8    1
    23     8     9    1
    24     9     4    1
    25    17    13   ar
    26    24    18   ar
@<TRIPOS>MOLECULE
*****
 24 26 0 0 0
SMALL
GASTEIGER

@<TRIPOS>ATOM
      1 C         142.7232  139.5069  158.1092 C.3     1  UNL1        0.1604
      2 C         145.0835  140.5809  163.5198 C.2     1  UNL1        0.4049
      3 O         145.2250  139.4644  164.5114 O.2     1  UNL1       -0.2262
      4 N         144.4934  140.3124  162.1672 N.am    1  UNL1       -0.2432
      5 C         144.3519  141.4289  161.1756 C.3     1  UNL1        0.1141
      6 C         143.7619  141.1605  159.8229 C.3     1  UNL1        0.0944
      7 N         143.3133  139.7754  159.4618 N.3     1  UNL1       -0.2619
      8 C         143.4548  138.6589  160.4534 C.3     1  UNL1        0.0944
      9 C         144.0449  138.9274  161.8061 C.3     1  UNL1        0.1141
     10 O         145.5321  141.9659  163.8809 O.3     1  UNL1       -0.4345
     11 C         143.5626  142.2808  165.5459 C.3     1  UNL1        0.0513
     12 C         144.6249  142.8678  164.6643 C.3     1  UNL1        0.2102
     13 C         143.1191  138.2759  157.3491 C.ar    1  UNL1        0.2426
     14 N         144.1365  138.2079  156.2490 N.ar    1  UNL1       -0.1099
     15 N         144.2133  136.7865  155.7757 N.ar    1  UNL1       -0.1072
     16 C         143.2432  135.9760  156.5834 C.ar    1  UNL1        0.2497
     17 O         142.5670  136.8965  157.5557 O.2     1  UNL1       -0.4181
     18 C         142.9933  134.5037  156.4432 C.ar    1  UNL1        0.0560
     19 C         141.8629  134.0130  155.5880 C.ar    1  UNL1        0.0048
     20 C         141.6130  132.5406  155.4479 C.ar    1  UNL1        0.0010
     21 C         142.4934  131.5590  156.1629 C.ar    1  UNL1        0.0114
     22 C         143.6239  132.0497  157.0181 C.ar    1  UNL1        0.0578
     23 CL        144.5043  131.0681  157.7331 Cl      1  UNL1       -0.0822
     24 C         143.8737  133.5221  157.1582 C.ar    1  UNL1        0.0161
@<TRIPOS>BOND
     1    11    12    1
     2    12    10    1
     3    10     2    1
     4     2     3    2
     5     2     4   am
     6     4     5    1
     7     5     6    1
     8     6     7    1
     9     7     1    1
    10     1    13    1
    11    13    14   ar
    12    14    15   ar
    13    15    16   ar
    14    16    18    1
    15    18    19   ar
    16    19    20   ar
    17    20    21   ar
    18    21    22   ar
    19    22    23    1
    20    22    24   ar
    21    16    17   ar
    22     7     8    1
    23     8     9    1
    24     9     4    1
    25    17    13   ar
    26    24    18   ar
@<TRIPOS>MOLECULE
*****
 24 26 0 0 0
SMALL
GASTEIGER

@<TRIPOS>ATOM
      1 C         138.8014  137.9089  164.0904 C.3     1  UNL1        0.1604
      2 C         138.5154  141.3605  159.1910 C.2     1  UNL1        0.4049
      3 O         138.1324  142.8056  159.3130 O.2     1  UNL1       -0.2262
      4 N         138.5869  140.4976  160.4159 N.am    1  UNL1       -0.2432
      5 C         138.9698  139.0525  160.2939 C.3     1  UNL1        0.1141
      6 C         139.0414  138.1896  161.5188 C.3     1  UNL1        0.0944
      7 N         138.7299  138.7718  162.8656 N.3     1  UNL1       -0.2619
      8 C         138.3469  140.2169  162.9875 C.3     1  UNL1        0.0944
      9 C         138.2754  141.0798  161.7627 C.3     1  UNL1        0.1141
     10 O         138.8268  140.7783  157.8442 O.3     1  UNL1       -0.4345
     11 C         138.0037  139.9563  155.5210 C.3     1  UNL1        0.0513
     12 C         137.7655  140.7277  156.7853 C.3     1  UNL1        0.2102
     13 C         138.9425  138.5388  165.4444 C.ar    1  UNL1        0.2426
     14 N         137.9762  138.4052  166.5840 N.ar    1  UNL1       -0.1099
     15 N         138.5111  139.1968  167.7405 N.ar    1  UNL1       -0.1072
     16 C         139.8080  139.8195  167.3157 C.ar    1  UNL1        0.2497
     17 O         140.0745  139.4129  165.8967 O.2     1  UNL1       -0.4181
     18 C         140.6843  140.6951  168.1613 C.ar    1  UNL1        0.0560
     19 C         142.0696  140.2462  168.5209 C.ar    1  UNL1        0.0048
     20 C         142.9460  141.1218  169.3666 C.ar    1  UNL1        0.0010
     21 C         142.4370  142.4465  169.8528 C.ar    1  UNL1        0.0114
     22 C         141.0516  142.8955  169.4932 C.ar    1  UNL1        0.0578
     23 CL        140.5427  144.2201  169.9793 Cl      1  UNL1       -0.0822
     24 C         140.1753  142.0198  168.6474 C.ar    1  UNL1        0.0161
@<TRIPOS>BOND
     1    11    12    1
     2    12    10    1
     3    10     2    1
     4     2     3    2
     5     2     4   am
     6     4     5    1
     7     5     6    1
     8     6     7    1
     9     7     1    1
    10     1    13    1
    11    13    14   ar
    12    14    15   ar
    13    15    16   ar
    14    16    18    1
    15    18    19   ar
    16    19    20   ar
    17    20    21   ar
    18    21    22   ar
    19    22    23    1
    20    22    24   ar
    21    16    17   ar
    22     7     8    1
    23     8     9    1
    24     9     4    1
    25    17    13   ar
    26    24    18   ar
@<TRIPOS>MOLECULE
*****
 24 26 0 0 0
SMALL
GASTEIGER

@<TRIPOS>ATOM
      1 C         141.7482  138.5699  157.8579 C.3     1  UNL1        0.1604
      2 C         140.2834  137.7940  163.6244 C.2     1  UNL1        0.4049
      3 O         138.8556  137.9366  164.0612 O.2     1  UNL1       -0.2262
      4 N         140.6496  137.9880  162.1827 N.am    1  UNL1       -0.2432
      5 C         142.0774  137.8453  161.7459 C.3     1  UNL1        0.1141
      6 C         142.4436  138.0393  160.3042 C.3     1  UNL1        0.0944
      7 N         141.3820  138.3760  159.2995 N.3     1  UNL1       -0.2619
      8 C         139.9542  138.5186  159.7364 C.3     1  UNL1        0.0944
      9 C         139.5880  138.3246  161.1780 C.3     1  UNL1        0.1141
     10 O         141.3451  137.4573  164.6291 O.3     1  UNL1       -0.4345
     11 C         143.2907  138.3510  166.1008 C.3     1  UNL1        0.0513
     12 C         141.9342  138.5368  165.4879 C.3     1  UNL1        0.2102
     13 C         142.5956  137.5508  157.1556 C.ar    1  UNL1        0.2426
     14 N         143.7656  137.8411  156.2630 N.ar    1  UNL1       -0.1099
     15 N         144.3150  136.5321  155.7783 N.ar    1  UNL1       -0.1072
     16 C         143.4844  135.4328  156.3715 C.ar    1  UNL1        0.2497
     17 O         142.4218  136.0624  157.2227 O.2     1  UNL1       -0.4181
     18 C         143.6818  133.9622  156.1520 C.ar    1  UNL1        0.0560
     19 C         143.2637  133.3346  154.8554 C.ar    1  UNL1        0.0048
     20 C         143.4611  131.8639  154.6359 C.ar    1  UNL1        0.0010
     21 C         144.0766  131.0208  155.7130 C.ar    1  UNL1        0.0114
     22 C         144.4948  131.6484  157.0097 C.ar    1  UNL1        0.0578
     23 CL        145.1103  130.8053  158.0869 Cl      1  UNL1       -0.0822
     24 C         144.2973  133.1191  157.2291 C.ar    1  UNL1        0.0161
@<TRIPOS>BOND
     1    11    12    1
     2    12    10    1
     3    10     2    1
     4     2     3    2
     5     2     4   am
     6     4     5    1
     7     5     6    1
     8     6     7    1
     9     7     1    1
    10     1    13    1
    11    13    14   ar
    12    14    15   ar
    13    15    16   ar
    14    16    18    1
    15    18    19   ar
    16    19    20   ar
    17    20    21   ar
    18    21    22   ar
    19    22    23    1
    20    22    24   ar
    21    16    17   ar
    22     7     8    1
    23     8     9    1
    24     9     4    1
    25    17    13   ar
    26    24    18   ar
@<TRIPOS>MOLECULE
*****
 24 26 0 0 0
SMALL
GASTEIGER

@<TRIPOS>ATOM
      1 C         143.2353  139.8649  160.0298 C.3     1  UNL1        0.1604
      2 C         138.0723  142.2162  161.9831 C.2     1  UNL1        0.4049
      3 O         136.9999  141.3212  162.5297 O.2     1  UNL1       -0.2262
      4 N         139.3631  141.6284  161.4948 N.am    1  UNL1       -0.2432
      5 C         140.4355  142.5234  160.9482 C.3     1  UNL1        0.1141
      6 C         141.7262  141.9356  160.4599 C.3     1  UNL1        0.0944
      7 N         141.9445  140.4527  160.5182 N.3     1  UNL1       -0.2619
      8 C         140.8721  139.5577  161.0647 C.3     1  UNL1        0.0944
      9 C         139.5814  140.1455  161.5530 C.3     1  UNL1        0.1141
     10 O         137.8540  143.6990  161.9248 O.3     1  UNL1       -0.4345
     11 C         137.9143  144.0625  164.4967 C.3     1  UNL1        0.0513
     12 C         138.1969  144.5547  163.1081 C.3     1  UNL1        0.2102
     13 C         143.2531  139.0193  158.7911 C.ar    1  UNL1        0.2426
     14 N         143.7892  139.4291  157.4514 N.ar    1  UNL1       -0.1099
     15 N         143.6054  138.2784  156.5068 N.ar    1  UNL1       -0.1072
     16 C         142.9557  137.1574  157.2628 C.ar    1  UNL1        0.2497
     17 O         142.7381  137.6152  158.6745 O.2     1  UNL1       -0.4181
     18 C         142.5884  135.8144  156.7050 C.ar    1  UNL1        0.0560
     19 C         141.5641  135.7100  155.6141 C.ar    1  UNL1        0.0048
     20 C         141.1967  134.3669  155.0562 C.ar    1  UNL1        0.0010
     21 C         141.8535  133.1282  155.5893 C.ar    1  UNL1        0.0114
     22 C         142.8778  133.2325  156.6802 C.ar    1  UNL1        0.0578
     23 CL        143.5347  131.9938  157.2132 Cl      1  UNL1       -0.0822
     24 C         143.2452  134.5756  157.2380 C.ar    1  UNL1        0.0161
@<TRIPOS>BOND
     1    11    12    1
     2    12    10    1
     3    10     2    1
     4     2     3    2
     5     2     4   am
     6     4     5    1
     7     5     6    1
     8     6     7    1
     9     7     1    1
    10     1    13    1
    11    13    14   ar
    12    14    15   ar
    13    15    16   ar
    14    16    18    1
    15    18    19   ar
    16    19    20   ar
    17    20    21   ar
    18    21    22   ar
    19    22    23    1
    20    22    24   ar
    21    16    17   ar
    22     7     8    1
    23     8     9    1
    24     9     4    1
    25    17    13   ar
    26    24    18   ar
