@<TRIPOS>MOLECULE
*****
 22 25 0 0 0
SMALL
GASTEIGER

@<TRIPOS>ATOM
      1 C         140.9345  141.0471  167.9585 C.3     1  UNL1        0.0353
      2 C         142.0220  140.8088  168.9637 C.3     1  UNL1        0.0225
      3 C         141.4372  140.0276  170.1029 C.3     1  UNL1        0.0689
      4 N         139.9882  139.7830  169.8017 N.3     1  UNL1       -0.2972
      5 C         139.6775  140.4131  168.4764 C.3     1  UNL1        0.0726
      6 H         139.4081  140.2019  170.5286 H       1  UNL1        0.1233
      7 C         140.0720  141.4348  166.7941 C.2     1  UNL1       -0.0387
      8 C         139.2435  140.3974  166.0961 C.2     1  UNL1       -0.0066
      9 C         138.3810  140.7852  164.9317 C.2     1  UNL1        0.0182
     10 C         138.3471  142.2104  164.4653 C.2     1  UNL1        0.0777
     11 N         137.5988  142.8853  163.3542 N.2     1  UNL1       -0.2442
     12 C         137.9649  144.3399  163.3655 C.2     1  UNL1        0.0985
     13 C         138.9394  144.5640  164.4836 C.2     1  UNL1        0.0182
     14 C         139.1756  143.2479  165.1634 C.2     1  UNL1        0.0011
     15 C         140.0381  142.8601  166.3277 C.3     1  UNL1        0.0499
     16 C         142.0111  141.7621  167.1972 C.3     1  UNL1        0.0315
     17 C         144.6972  139.4686  164.4089 C.ar    1  UNL1       -0.0000
     18 C         143.8340  138.7344  165.3916 C.ar    1  UNL1       -0.0003
     19 C         142.9386  139.4989  166.3210 C.ar    1  UNL1       -0.0043
     20 C         142.9065  140.9976  166.2678 C.ar    1  UNL1       -0.0218
     21 C         143.7697  141.7318  165.2850 C.ar    1  UNL1       -0.0043
     22 C         144.6651  140.9674  164.3555 C.ar    1  UNL1       -0.0003
@<TRIPOS>BOND
     1    17    18   ar
     2    18    19   ar
     3    19    20   ar
     4    20    16    1
     5    16     1    1
     6     1     7    1
     7     7     8    2
     8     8     9    1
     9     9    10    2
    10    10    11    1
    11    11    12    2
    12    12    13    1
    13    13    14    2
    14    14    15    1
    15     1     2    1
    16     2     3    1
    17     3     4    1
    18     4     5    1
    19    20    21   ar
    20    21    22   ar
    21    22    17   ar
    22     5     1    1
    23    15     7    1
    24    14    10    1
    25     4     6    1
@<TRIPOS>MOLECULE
*****
 22 25 0 0 0
SMALL
GASTEIGER

@<TRIPOS>ATOM
      1 C         141.0125  141.8541  168.4523 C.3     1  UNL1        0.0353
      2 C         141.0588  140.9408  169.6412 C.3     1  UNL1        0.0225
      3 C         140.6331  141.7264  170.8460 C.3     1  UNL1        0.0689
      4 N         140.3236  143.1253  170.4017 N.3     1  UNL1       -0.2972
      5 C         140.5581  143.2043  168.9223 C.3     1  UNL1        0.0726
      6 H         140.9338  143.7848  170.8846 H       1  UNL1        0.1233
      7 C         141.0634  142.5142  167.1062 C.2     1  UNL1       -0.0387
      8 C         142.3223  142.4620  166.2924 C.2     1  UNL1       -0.0066
      9 C         142.3732  143.1220  164.9463 C.2     1  UNL1        0.0182
     10 C         141.1651  143.8342  164.4142 C.2     1  UNL1        0.0777
     11 N         140.9187  144.5716  163.1314 N.2     1  UNL1       -0.2442
     12 C         139.5075  145.0794  163.1524 C.2     1  UNL1        0.0985
     13 C         138.8816  144.6560  164.4482 C.2     1  UNL1        0.0182
     14 C         139.9061  143.8864  165.2280 C.2     1  UNL1        0.0011
     15 C         139.8553  143.2264  166.5740 C.3     1  UNL1        0.0499
     16 C         141.4775  140.6421  167.7009 C.3     1  UNL1        0.0315
     17 C         138.4959  138.0484  165.5484 C.ar    1  UNL1       -0.0000
     18 C         139.8991  138.1654  165.0316 C.ar    1  UNL1       -0.0003
     19 C         140.8930  139.0300  165.7491 C.ar    1  UNL1       -0.0043
     20 C         140.4836  139.7776  166.9834 C.ar    1  UNL1       -0.0218
     21 C         139.0803  139.6605  167.5002 C.ar    1  UNL1       -0.0043
     22 C         138.0864  138.7960  166.7828 C.ar    1  UNL1       -0.0003
@<TRIPOS>BOND
     1    17    18   ar
     2    18    19   ar
     3    19    20   ar
     4    20    16    1
     5    16     1    1
     6     1     7    1
     7     7     8    2
     8     8     9    1
     9     9    10    2
    10    10    11    1
    11    11    12    2
    12    12    13    1
    13    13    14    2
    14    14    15    1
    15     1     2    1
    16     2     3    1
    17     3     4    1
    18     4     5    1
    19    20    21   ar
    20    21    22   ar
    21    22    17   ar
    22     5     1    1
    23    15     7    1
    24    14    10    1
    25     4     6    1
@<TRIPOS>MOLECULE
*****
 22 25 0 0 0
SMALL
GASTEIGER

@<TRIPOS>ATOM
      1 C         140.8587  141.8843  168.5263 C.3     1  UNL1        0.0353
      2 C         140.5230  141.0992  169.7595 C.3     1  UNL1        0.0225
      3 C         139.9446  142.0463  170.7687 C.3     1  UNL1        0.0689
      4 N         139.9228  143.4167  170.1592 N.3     1  UNL1       -0.2972
      5 C         140.4877  143.3166  168.7733 C.3     1  UNL1        0.0726
      6 H         140.4897  144.0536  170.7189 H       1  UNL1        0.1233
      7 C         141.2907  142.3922  167.1826 C.2     1  UNL1       -0.0387
      8 C         140.2881  143.0190  166.2598 C.2     1  UNL1       -0.0066
      9 C         140.7201  143.5270  164.9161 C.2     1  UNL1        0.0182
     10 C         142.1550  143.4080  164.4954 C.2     1  UNL1        0.0777
     11 N         142.8702  143.8153  163.2414 N.2     1  UNL1       -0.2442
     12 C         144.3150  143.4401  163.3892 C.2     1  UNL1        0.0985
     13 C         144.4927  142.8010  164.7345 C.2     1  UNL1        0.0182
     14 C         143.1577  142.7811  165.4182 C.2     1  UNL1        0.0011
     15 C         142.7256  142.2732  166.7618 C.3     1  UNL1        0.0499
     16 C         141.3200  140.5583  167.9983 C.3     1  UNL1        0.0315
     17 C         138.6091  138.1205  165.3603 C.ar    1  UNL1       -0.0000
     18 C         140.0575  138.2798  165.0042 C.ar    1  UNL1       -0.0003
     19 C         140.9611  139.0924  165.8835 C.ar    1  UNL1       -0.0043
     20 C         140.4164  139.7457  167.1190 C.ar    1  UNL1       -0.0218
     21 C         138.9680  139.5864  167.4751 C.ar    1  UNL1       -0.0043
     22 C         138.0643  138.7739  166.5958 C.ar    1  UNL1       -0.0003
@<TRIPOS>BOND
     1    17    18   ar
     2    18    19   ar
     3    19    20   ar
     4    20    16    1
     5    16     1    1
     6     1     7    1
     7     7     8    2
     8     8     9    1
     9     9    10    2
    10    10    11    1
    11    11    12    2
    12    12    13    1
    13    13    14    2
    14    14    15    1
    15     1     2    1
    16     2     3    1
    17     3     4    1
    18     4     5    1
    19    20    21   ar
    20    21    22   ar
    21    22    17   ar
    22     5     1    1
    23    15     7    1
    24    14    10    1
    25     4     6    1
@<TRIPOS>MOLECULE
*****
 22 25 0 0 0
SMALL
GASTEIGER

@<TRIPOS>ATOM
      1 C         139.7069  142.4719  164.9232 C.3     1  UNL1        0.0353
      2 C         138.7228  142.1832  163.8287 C.3     1  UNL1        0.0225
      3 C         137.8108  143.3672  163.7010 C.3     1  UNL1        0.0689
      4 N         138.2313  144.3878  164.7167 N.3     1  UNL1       -0.2972
      5 C         139.4031  143.8345  165.4721 C.3     1  UNL1        0.0726
      6 H         137.4616  144.5738  165.3596 H       1  UNL1        0.1233
      7 C         140.8024  142.4761  165.9479 C.2     1  UNL1       -0.0387
      8 C         142.2194  142.2138  165.5320 C.2     1  UNL1       -0.0066
      9 C         143.3149  142.2180  166.5567 C.2     1  UNL1        0.0182
     10 C         142.9932  142.4846  167.9974 C.2     1  UNL1        0.0777
     11 N         143.8560  142.5522  169.2225 N.2     1  UNL1       -0.2442
     12 C         142.9721  142.8563  170.3956 C.2     1  UNL1        0.0985
     13 C         141.5631  142.9766  169.8955 C.2     1  UNL1        0.0182
     14 C         141.5761  142.7469  168.4133 C.2     1  UNL1        0.0011
     15 C         140.4807  142.7427  167.3886 C.3     1  UNL1        0.0499
     16 C         140.2397  141.1103  164.5887 C.3     1  UNL1        0.0315
     17 C         138.1177  137.4343  166.0834 C.ar    1  UNL1       -0.0000
     18 C         137.9257  138.7475  166.7825 C.ar    1  UNL1       -0.0003
     19 C         138.6331  139.9728  166.2842 C.ar    1  UNL1       -0.0043
     20 C         139.5324  139.8850  165.0869 C.ar    1  UNL1       -0.0218
     21 C         139.7243  138.5718  164.3879 C.ar    1  UNL1       -0.0043
     22 C         139.0171  137.3464  164.8861 C.ar    1  UNL1       -0.0003
@<TRIPOS>BOND
     1    17    18   ar
     2    18    19   ar
     3    19    20   ar
     4    20    16    1
     5    16     1    1
     6     1     7    1
     7     7     8    2
     8     8     9    1
     9     9    10    2
    10    10    11    1
    11    11    12    2
    12    12    13    1
    13    13    14    2
    14    14    15    1
    15     1     2    1
    16     2     3    1
    17     3     4    1
    18     4     5    1
    19    20    21   ar
    20    21    22   ar
    21    22    17   ar
    22     5     1    1
    23    15     7    1
    24    14    10    1
    25     4     6    1
@<TRIPOS>MOLECULE
*****
 22 25 0 0 0
SMALL
GASTEIGER

@<TRIPOS>ATOM
      1 C         139.6429  141.2088  165.5251 C.3     1  UNL1        0.0353
      2 C         140.1067  140.1653  166.4978 C.3     1  UNL1        0.0225
      3 C         139.0229  139.1362  166.6254 C.3     1  UNL1        0.0689
      4 N         137.8893  139.5436  165.7316 N.3     1  UNL1       -0.2972
      5 C         138.2724  140.8245  165.0516 C.3     1  UNL1        0.0726
      6 H         137.0449  139.6852  166.2861 H       1  UNL1        0.1233
      7 C         139.4574  142.3839  164.6115 C.2     1  UNL1       -0.0387
      8 C         138.2400  143.2504  164.7418 C.2     1  UNL1       -0.0066
      9 C         138.0545  144.4256  163.8282 C.2     1  UNL1        0.0182
     10 C         139.0865  144.7341  162.7842 C.2     1  UNL1        0.0777
     11 N         139.1750  145.8166  161.7496 N.2     1  UNL1       -0.2442
     12 C         140.4472  145.6190  160.9799 C.2     1  UNL1        0.0985
     13 C         141.1449  144.4145  161.5387 C.2     1  UNL1        0.0182
     14 C         140.3039  143.8676  162.6539 C.2     1  UNL1        0.0011
     15 C         140.4893  142.6925  163.5675 C.3     1  UNL1        0.0499
     16 C         140.9745  141.8387  165.8076 C.3     1  UNL1        0.0315
     17 C         142.0049  143.1425  169.9896 C.ar    1  UNL1       -0.0000
     18 C         140.6373  143.4120  169.4354 C.ar    1  UNL1       -0.0003
     19 C         140.2938  142.9774  168.0415 C.ar    1  UNL1       -0.0043
     20 C         141.3180  142.2733  167.2016 C.ar    1  UNL1       -0.0218
     21 C         142.6856  142.0038  167.7557 C.ar    1  UNL1       -0.0043
     22 C         143.0291  142.4384  169.1497 C.ar    1  UNL1       -0.0003
@<TRIPOS>BOND
     1    17    18   ar
     2    18    19   ar
     3    19    20   ar
     4    20    16    1
     5    16     1    1
     6     1     7    1
     7     7     8    2
     8     8     9    1
     9     9    10    2
    10    10    11    1
    11    11    12    2
    12    12    13    1
    13    13    14    2
    14    14    15    1
    15     1     2    1
    16     2     3    1
    17     3     4    1
    18     4     5    1
    19    20    21   ar
    20    21    22   ar
    21    22    17   ar
    22     5     1    1
    23    15     7    1
    24    14    10    1
    25     4     6    1
@<TRIPOS>MOLECULE
*****
 22 25 0 0 0
SMALL
GASTEIGER

@<TRIPOS>ATOM
      1 C         141.1508  141.2311  167.9117 C.3     1  UNL1        0.0353
      2 C         140.1134  141.8184  168.8220 C.3     1  UNL1        0.0225
      3 C         139.8636  140.8407  169.9318 C.3     1  UNL1        0.0689
      4 N         140.7467  139.6491  169.7074 N.3     1  UNL1       -0.2972
      5 C         141.5423  139.8904  168.4589 C.3     1  UNL1        0.0726
      6 H         140.1759  138.8110  169.5976 H       1  UNL1        0.1233
      7 C         142.1502  140.9100  166.8401 C.2     1  UNL1       -0.0387
      8 C         142.2972  139.5002  166.3497 C.2     1  UNL1       -0.0066
      9 C         143.2965  139.1790  165.2781 C.2     1  UNL1        0.0182
     10 C         144.1489  140.2679  164.6970 C.2     1  UNL1        0.0777
     11 N         145.2111  140.2538  163.6380 N.2     1  UNL1       -0.2442
     12 C         145.7206  141.6551  163.4739 C.2     1  UNL1        0.0985
     13 C         144.9733  142.5352  164.4315 C.2     1  UNL1        0.0182
     14 C         144.0019  141.6779  165.1874 C.2     1  UNL1        0.0011
     15 C         143.0026  141.9989  166.2590 C.3     1  UNL1        0.0499
     16 C         140.9684  142.5046  167.1405 C.3     1  UNL1        0.0315
     17 C         137.6546  142.8477  164.1153 C.ar    1  UNL1       -0.0000
     18 C         138.1217  141.4954  164.5659 C.ar    1  UNL1       -0.0003
     19 C         139.2263  141.3811  165.5743 C.ar    1  UNL1       -0.0043
     20 C         139.8638  142.6190  166.1321 C.ar    1  UNL1       -0.0218
     21 C         139.3968  143.9713  165.6814 C.ar    1  UNL1       -0.0043
     22 C         138.2922  144.0858  164.6730 C.ar    1  UNL1       -0.0003
@<TRIPOS>BOND
     1    17    18   ar
     2    18    19   ar
     3    19    20   ar
     4    20    16    1
     5    16     1    1
     6     1     7    1
     7     7     8    2
     8     8     9    1
     9     9    10    2
    10    10    11    1
    11    11    12    2
    12    12    13    1
    13    13    14    2
    14    14    15    1
    15     1     2    1
    16     2     3    1
    17     3     4    1
    18     4     5    1
    19    20    21   ar
    20    21    22   ar
    21    22    17   ar
    22     5     1    1
    23    15     7    1
    24    14    10    1
    25     4     6    1
@<TRIPOS>MOLECULE
*****
 22 25 0 0 0
SMALL
GASTEIGER

@<TRIPOS>ATOM
      1 C         139.3667  139.3087  164.8907 C.3     1  UNL1        0.0353
      2 C         138.4890  139.3320  163.6746 C.3     1  UNL1        0.0225
      3 C         138.9393  138.2344  162.7569 C.3     1  UNL1        0.0689
      4 N         140.0953  137.5326  163.4058 N.3     1  UNL1       -0.2972
      5 C         140.3595  138.1966  164.7246 C.3     1  UNL1        0.0726
      6 H         140.9211  137.6031  162.8112 H       1  UNL1        0.1233
      7 C         140.0676  139.5274  166.1988 C.2     1  UNL1       -0.0387
      8 C         141.5616  139.4200  166.2763 C.2     1  UNL1       -0.0066
      9 C         142.2625  139.6387  167.5844 C.2     1  UNL1        0.0182
     10 C         141.4691  139.9647  168.8150 C.2     1  UNL1        0.0777
     11 N         141.8801  140.2306  170.2329 N.2     1  UNL1       -0.2442
     12 C         140.6399  140.5024  171.0317 C.2     1  UNL1        0.0985
     13 C         139.4625  140.4044  170.1075 C.2     1  UNL1        0.0182
     14 C         139.9750  140.0721  168.7375 C.2     1  UNL1        0.0011
     15 C         139.2742  139.8534  167.4294 C.3     1  UNL1        0.0499
     16 C         138.5205  140.4665  165.3304 C.3     1  UNL1        0.0315
     17 C         139.2573  144.5663  163.6276 C.ar    1  UNL1       -0.0000
     18 C         140.4098  143.7365  164.1107 C.ar    1  UNL1       -0.0003
     19 C         140.1642  142.3699  164.6782 C.ar    1  UNL1       -0.0043
     20 C         138.7661  141.8331  164.7628 C.ar    1  UNL1       -0.0218
     21 C         137.6136  142.6629  164.2798 C.ar    1  UNL1       -0.0043
     22 C         137.8591  144.0295  163.7122 C.ar    1  UNL1       -0.0003
@<TRIPOS>BOND
     1    17    18   ar
     2    18    19   ar
     3    19    20   ar
     4    20    16    1
     5    16     1    1
     6     1     7    1
     7     7     8    2
     8     8     9    1
     9     9    10    2
    10    10    11    1
    11    11    12    2
    12    12    13    1
    13    13    14    2
    14    14    15    1
    15     1     2    1
    16     2     3    1
    17     3     4    1
    18     4     5    1
    19    20    21   ar
    20    21    22   ar
    21    22    17   ar
    22     5     1    1
    23    15     7    1
    24    14    10    1
    25     4     6    1
@<TRIPOS>MOLECULE
*****
 22 25 0 0 0
SMALL
GASTEIGER

@<TRIPOS>ATOM
      1 C         141.4562  139.6537  167.1860 C.3     1  UNL1        0.0353
      2 C         142.6195  139.4736  168.1156 C.3     1  UNL1        0.0225
      3 C         142.1596  139.8078  169.5037 C.3     1  UNL1        0.0689
      4 N         140.7121  140.1944  169.4320 N.3     1  UNL1       -0.2972
      5 C         140.2773  140.0992  167.9996 C.3     1  UNL1        0.0726
      6 H         140.5920  141.1502  169.7674 H       1  UNL1        0.1233
      7 C         140.4973  139.7447  166.0361 C.2     1  UNL1       -0.0387
      8 C         139.6838  140.9887  165.8344 C.2     1  UNL1       -0.0066
      9 C         138.7249  141.0796  164.6844 C.2     1  UNL1        0.0182
     10 C         138.5796  139.9265  163.7362 C.2     1  UNL1        0.0777
     11 N         137.7219  139.7277  162.5218 N.2     1  UNL1       -0.2442
     12 C         138.0053  138.3609  161.9729 C.2     1  UNL1        0.0985
     13 C         139.0381  137.7148  162.8481 C.2     1  UNL1        0.0182
     14 C         139.3931  138.6825  163.9379 C.2     1  UNL1        0.0011
     15 C         140.3519  138.5916  165.0878 C.3     1  UNL1        0.0499
     16 C         142.4345  139.2273  166.1320 C.3     1  UNL1        0.0315
     17 C         145.1800  142.2573  164.2528 C.ar    1  UNL1       -0.0000
     18 C         144.1215  142.7014  165.2184 C.ar    1  UNL1       -0.0003
     19 C         143.2063  141.6914  165.8448 C.ar    1  UNL1       -0.0043
     20 C         143.3496  140.2373  165.5056 C.ar    1  UNL1       -0.0218
     21 C         144.4081  139.7932  164.5400 C.ar    1  UNL1       -0.0043
     22 C         145.3233  140.8031  163.9136 C.ar    1  UNL1       -0.0003
@<TRIPOS>BOND
     1    17    18   ar
     2    18    19   ar
     3    19    20   ar
     4    20    16    1
     5    16     1    1
     6     1     7    1
     7     7     8    2
     8     8     9    1
     9     9    10    2
    10    10    11    1
    11    11    12    2
    12    12    13    1
    13    13    14    2
    14    14    15    1
    15     1     2    1
    16     2     3    1
    17     3     4    1
    18     4     5    1
    19    20    21   ar
    20    21    22   ar
    21    22    17   ar
    22     5     1    1
    23    15     7    1
    24    14    10    1
    25     4     6    1
@<TRIPOS>MOLECULE
*****
 22 25 0 0 0
SMALL
GASTEIGER

@<TRIPOS>ATOM
      1 C         142.7152  139.9198  165.0216 C.3     1  UNL1        0.0353
      2 C         143.8141  140.1732  164.0326 C.3     1  UNL1        0.0225
      3 C         143.7567  139.0964  162.9899 C.3     1  UNL1        0.0689
      4 N         142.6224  138.1773  163.3346 N.3     1  UNL1       -0.2972
      5 C         141.9787  138.6862  164.5902 C.3     1  UNL1        0.0726
      6 H         142.9760  137.2325  163.4852 H       1  UNL1        0.1233
      7 C         141.7271  139.9243  166.1502 C.2     1  UNL1       -0.0387
      8 C         140.2577  139.8405  165.8609 C.2     1  UNL1       -0.0066
      9 C         139.2696  139.8450  166.9894 C.2     1  UNL1        0.0182
     10 C         139.7509  139.9334  168.4073 C.2     1  UNL1        0.0777
     11 N         139.0186  139.9585  169.7162 N.2     1  UNL1       -0.2442
     12 C         140.0355  140.0579  170.8144 C.2     1  UNL1        0.0985
     13 C         141.3962  140.0941  170.1843 C.2     1  UNL1        0.0182
     14 C         141.2204  140.0172  168.6966 C.2     1  UNL1        0.0011
     15 C         142.2085  140.0127  167.5681 C.3     1  UNL1        0.0499
     16 C         143.2451  141.1542  165.6889 C.3     1  UNL1        0.0315
     17 C         142.5536  145.1918  163.8261 C.ar    1  UNL1       -0.0000
     18 C         141.4158  144.2237  163.9621 C.ar    1  UNL1       -0.0003
     19 C         141.6463  142.8779  164.5830 C.ar    1  UNL1       -0.0043
     20 C         143.0146  142.5000  165.0680 C.ar    1  UNL1       -0.0218
     21 C         144.1523  143.4681  164.9320 C.ar    1  UNL1       -0.0043
     22 C         143.9219  144.8140  164.3111 C.ar    1  UNL1       -0.0003
@<TRIPOS>BOND
     1    17    18   ar
     2    18    19   ar
     3    19    20   ar
     4    20    16    1
     5    16     1    1
     6     1     7    1
     7     7     8    2
     8     8     9    1
     9     9    10    2
    10    10    11    1
    11    11    12    2
    12    12    13    1
    13    13    14    2
    14    14    15    1
    15     1     2    1
    16     2     3    1
    17     3     4    1
    18     4     5    1
    19    20    21   ar
    20    21    22   ar
    21    22    17   ar
    22     5     1    1
    23    15     7    1
    24    14    10    1
    25     4     6    1
