@<TRIPOS>MOLECULE
*****
 29 31 0 0 0
SMALL
GASTEIGER

@<TRIPOS>ATOM
      1 N         140.7332  143.1949  165.3355 N.3     1  UNL1       -0.2725
      2 C         139.2576  143.4195  165.1863 C.3     1  UNL1        0.0749
      3 C         138.7421  144.3244  164.1068 C.3     1  UNL1        0.0517
      4 C         139.7022  145.0047  163.1764 C.3     1  UNL1        0.1544
      5 F         138.4034  145.5288  162.6393 F       1  UNL1       -0.2382
      6 C         141.1777  144.7800  163.3255 C.3     1  UNL1        0.0517
      7 C         141.6932  143.8751  164.4051 C.3     1  UNL1        0.0749
      8 C         141.2487  142.2900  166.4150 C.3     1  UNL1        0.0722
      9 C         137.6017  138.2665  167.0598 C.3     1  UNL1        0.0296
     10 C         138.6028  139.3721  166.8998 C.3     1  UNL1        0.0930
     11 C         138.3769  139.0149  165.4606 C.3     1  UNL1        0.0296
     12 C         139.5253  140.3536  166.2400 C.3     1  UNL1        0.0287
     13 C         140.3261  141.3084  167.0749 C.3     1  UNL1        0.0208
     14 C         140.2043  141.2817  168.5697 C.3     1  UNL1        0.0335
     15 C         139.2818  140.3002  169.2295 C.3     1  UNL1        0.1420
     16 O         138.4810  139.3454  168.3946 O.3     1  UNL1       -0.3585
     17 C         140.2112  145.8669  162.0594 C.3     1  UNL1        0.1224
     18 N         139.6937  145.6711  160.6652 N.am    1  UNL1       -0.2984
     19 C         140.6349  145.2833  159.5635 C.2     1  UNL1        0.2460
     20 O         142.0935  145.0913  159.8560 O.2     1  UNL1       -0.2701
     21 H         138.7363  145.7970  160.4733 H       1  UNL1        0.1498
     22 C         140.1175  145.0874  158.1693 C.ar    1  UNL1        0.0550
     23 C         140.1490  146.2240  157.1910 C.ar    1  UNL1        0.0160
     24 C         139.6315  146.0282  155.7968 C.ar    1  UNL1        0.0587
     25 CL        139.6630  147.1649  154.8185 Cl      1  UNL1       -0.0822
     26 C         139.0826  144.6957  155.3808 C.ar    1  UNL1        0.0228
     27 C         139.0511  143.5590  156.3591 C.ar    1  UNL1        0.0587
     28 CL        138.5021  142.2265  155.9431 Cl      1  UNL1       -0.0822
     29 C         139.5685  143.7548  157.7533 C.ar    1  UNL1        0.0160
@<TRIPOS>BOND
     1     9    10    1
     2    10    11    1
     3    10    12    1
     4    12    13    1
     5    13     8    1
     6     8     1    1
     7     1     2    1
     8     2     3    1
     9     3     4    1
    10     4     5    1
    11     4    17    1
    12    17    18    1
    13    18    19   am
    14    19    20    2
    15    19    22    1
    16    22    23   ar
    17    23    24   ar
    18    24    25    1
    19    24    26   ar
    20    26    27   ar
    21    27    28    1
    22    27    29   ar
    23     4     6    1
    24     6     7    1
    25    13    14    1
    26    14    15    1
    27    15    16    1
    28    16    10    1
    29     7     1    1
    30    29    22   ar
    31    18    21    1
@<TRIPOS>MOLECULE
*****
 29 31 0 0 0
SMALL
GASTEIGER

@<TRIPOS>ATOM
      1 N         140.9663  143.1969  165.0034 N.3     1  UNL1       -0.2725
      2 C         139.4860  143.1273  164.7711 C.3     1  UNL1        0.0749
      3 C         138.8409  144.0359  163.7670 C.3     1  UNL1        0.0517
      4 C         139.6761  145.0140  162.9951 C.3     1  UNL1        0.1544
      5 F         138.3227  145.3213  162.4260 F       1  UNL1       -0.2382
      6 C         141.1564  145.0835  163.2274 C.3     1  UNL1        0.0517
      7 C         141.8015  144.1749  164.2315 C.3     1  UNL1        0.0749
      8 C         141.6114  142.2883  166.0076 C.3     1  UNL1        0.0722
      9 C         139.4968  142.7846  171.0263 C.3     1  UNL1        0.0296
     10 C         140.0710  142.6325  169.6489 C.3     1  UNL1        0.0930
     11 C         140.4790  144.0450  169.9467 C.3     1  UNL1        0.0296
     12 C         140.7869  142.9710  168.3750 C.3     1  UNL1        0.0287
     13 C         140.8954  141.9498  167.2816 C.3     1  UNL1        0.0208
     14 C         140.2880  140.5903  167.4621 C.3     1  UNL1        0.0335
     15 C         139.5721  140.2519  168.7360 C.3     1  UNL1        0.1420
     16 O         139.4636  141.2730  169.8294 O.3     1  UNL1       -0.3585
     17 C         140.0413  146.0988  162.0255 C.3     1  UNL1        0.1224
     18 N         139.6389  145.9839  160.5851 N.am    1  UNL1       -0.2984
     19 C         140.5847  145.3832  159.5878 C.2     1  UNL1        0.2460
     20 O         141.9328  144.8973  160.0310 O.2     1  UNL1       -0.2701
     21 H         138.7540  146.3028  160.2943 H       1  UNL1        0.1498
     22 C         140.1823  145.2682  158.1474 C.ar    1  UNL1        0.0550
     23 C         140.0643  143.9169  157.5072 C.ar    1  UNL1        0.0160
     24 C         139.6620  143.8019  156.0668 C.ar    1  UNL1        0.0587
     25 CL        139.5440  142.4505  155.4265 Cl      1  UNL1       -0.0822
     26 C         139.3776  145.0383  155.2665 C.ar    1  UNL1        0.0228
     27 C         139.4956  146.3897  155.9067 C.ar    1  UNL1        0.0587
     28 CL        139.2113  147.6261  155.1064 Cl      1  UNL1       -0.0822
     29 C         139.8980  146.5047  157.3471 C.ar    1  UNL1        0.0160
@<TRIPOS>BOND
     1     9    10    1
     2    10    11    1
     3    10    12    1
     4    12    13    1
     5    13     8    1
     6     8     1    1
     7     1     2    1
     8     2     3    1
     9     3     4    1
    10     4     5    1
    11     4    17    1
    12    17    18    1
    13    18    19   am
    14    19    20    2
    15    19    22    1
    16    22    23   ar
    17    23    24   ar
    18    24    25    1
    19    24    26   ar
    20    26    27   ar
    21    27    28    1
    22    27    29   ar
    23     4     6    1
    24     6     7    1
    25    13    14    1
    26    14    15    1
    27    15    16    1
    28    16    10    1
    29     7     1    1
    30    29    22   ar
    31    18    21    1
@<TRIPOS>MOLECULE
*****
 29 31 0 0 0
SMALL
GASTEIGER

@<TRIPOS>ATOM
      1 N         142.6358  142.1802  165.8446 N.3     1  UNL1       -0.2725
      2 C         143.9406  142.8760  165.5927 C.3     1  UNL1        0.0749
      3 C         143.9971  144.0493  164.6599 C.3     1  UNL1        0.0517
      4 C         142.7487  144.5268  163.9790 C.3     1  UNL1        0.1544
      5 F         143.7395  145.5067  163.4236 F       1  UNL1       -0.2382
      6 C         141.4440  143.8310  164.2308 C.3     1  UNL1        0.0517
      7 C         141.3875  142.6577  165.1636 C.3     1  UNL1        0.0749
      8 C         142.5794  141.0069  166.7774 C.3     1  UNL1        0.0722
      9 C         137.7157  138.5096  166.8943 C.3     1  UNL1        0.0296
     10 C         139.0475  139.1997  166.8783 C.3     1  UNL1        0.0930
     11 C         139.0245  138.6454  165.4846 C.3     1  UNL1        0.0296
     12 C         140.3713  139.6972  166.3783 C.3     1  UNL1        0.0287
     13 C         141.2555  140.5093  167.2775 C.3     1  UNL1        0.0208
     14 C         140.8160  140.8239  168.6767 C.3     1  UNL1        0.0335
     15 C         139.4923  140.3264  169.1767 C.3     1  UNL1        0.1420
     16 O         138.6080  139.5143  168.2775 O.3     1  UNL1       -0.3585
     17 C         141.8445  145.3446  163.1051 C.3     1  UNL1        0.1224
     18 N         141.6408  144.9608  161.6694 N.am    1  UNL1       -0.2984
     19 C         140.3576  145.3089  160.9749 C.2     1  UNL1        0.2460
     20 O         139.2782  146.0407  161.7162 O.2     1  UNL1       -0.2701
     21 H         142.3492  144.4805  161.1830 H       1  UNL1        0.1498
     22 C         140.1537  144.9252  159.5393 C.ar    1  UNL1        0.0550
     23 C         140.3875  145.9329  158.4531 C.ar    1  UNL1        0.0160
     24 C         140.1837  145.5493  157.0174 C.ar    1  UNL1        0.0587
     25 CL        140.4175  146.5570  155.9313 Cl      1  UNL1       -0.0822
     26 C         139.7461  144.1577  156.6679 C.ar    1  UNL1        0.0228
     27 C         139.5124  143.1500  157.7540 C.ar    1  UNL1        0.0587
     28 CL        139.0748  141.7584  157.4044 Cl      1  UNL1       -0.0822
     29 C         139.7161  143.5336  159.1897 C.ar    1  UNL1        0.0160
@<TRIPOS>BOND
     1     9    10    1
     2    10    11    1
     3    10    12    1
     4    12    13    1
     5    13     8    1
     6     8     1    1
     7     1     2    1
     8     2     3    1
     9     3     4    1
    10     4     5    1
    11     4    17    1
    12    17    18    1
    13    18    19   am
    14    19    20    2
    15    19    22    1
    16    22    23   ar
    17    23    24   ar
    18    24    25    1
    19    24    26   ar
    20    26    27   ar
    21    27    28    1
    22    27    29   ar
    23     4     6    1
    24     6     7    1
    25    13    14    1
    26    14    15    1
    27    15    16    1
    28    16    10    1
    29     7     1    1
    30    29    22   ar
    31    18    21    1
@<TRIPOS>MOLECULE
*****
 29 31 0 0 0
SMALL
GASTEIGER

@<TRIPOS>ATOM
      1 N         142.8592  141.9441  165.5093 N.3     1  UNL1       -0.2725
      2 C         144.0209  142.8930  165.4972 C.3     1  UNL1        0.0749
      3 C         143.9787  144.1192  164.6343 C.3     1  UNL1        0.0517
      4 C         142.7748  144.3965  163.7835 C.3     1  UNL1        0.1544
      5 F         143.6203  145.5851  163.4337 F       1  UNL1       -0.2382
      6 C         141.6131  143.4476  163.7956 C.3     1  UNL1        0.0517
      7 C         141.6554  142.2214  164.6585 C.3     1  UNL1        0.0749
      8 C         142.9014  140.7178  166.3722 C.3     1  UNL1        0.0722
      9 C         140.1113  142.4528  170.7438 C.3     1  UNL1        0.0296
     10 C         140.8800  141.9623  169.5527 C.3     1  UNL1        0.0930
     11 C         140.4608  143.3134  169.0538 C.3     1  UNL1        0.0296
     12 C         141.5030  141.9410  168.1884 C.3     1  UNL1        0.0287
     13 C         142.2783  140.7390  167.7366 C.3     1  UNL1        0.0208
     14 C         142.4306  139.5583  168.6490 C.3     1  UNL1        0.0335
     15 C         141.8075  139.5796  170.0133 C.3     1  UNL1        0.1420
     16 O         141.0322  140.7815  170.4651 O.3     1  UNL1       -0.3585
     17 C         141.8645  145.0866  162.8112 C.3     1  UNL1        0.1224
     18 N         142.1356  144.9995  161.3385 N.am    1  UNL1       -0.2984
     19 C         141.0075  145.1340  160.3590 C.2     1  UNL1        0.2460
     20 O         139.6084  145.3557  160.8523 O.2     1  UNL1       -0.2701
     21 H         143.0539  144.8539  161.0148 H       1  UNL1        0.1498
     22 C         141.2786  145.0469  158.8863 C.ar    1  UNL1        0.0550
     23 C         142.2834  144.0624  158.3656 C.ar    1  UNL1        0.0160
     24 C         142.5545  143.9752  156.8929 C.ar    1  UNL1        0.0587
     25 CL        143.5594  142.9908  156.3722 Cl      1  UNL1       -0.0822
     26 C         141.8207  144.8725  155.9408 C.ar    1  UNL1        0.0228
     27 C         140.8158  145.8569  156.4616 C.ar    1  UNL1        0.0587
     28 CL        140.0819  146.7542  155.5095 Cl      1  UNL1       -0.0822
     29 C         140.5447  145.9441  157.9343 C.ar    1  UNL1        0.0160
@<TRIPOS>BOND
     1     9    10    1
     2    10    11    1
     3    10    12    1
     4    12    13    1
     5    13     8    1
     6     8     1    1
     7     1     2    1
     8     2     3    1
     9     3     4    1
    10     4     5    1
    11     4    17    1
    12    17    18    1
    13    18    19   am
    14    19    20    2
    15    19    22    1
    16    22    23   ar
    17    23    24   ar
    18    24    25    1
    19    24    26   ar
    20    26    27   ar
    21    27    28    1
    22    27    29   ar
    23     4     6    1
    24     6     7    1
    25    13    14    1
    26    14    15    1
    27    15    16    1
    28    16    10    1
    29     7     1    1
    30    29    22   ar
    31    18    21    1
@<TRIPOS>MOLECULE
*****
 29 31 0 0 0
SMALL
GASTEIGER

@<TRIPOS>ATOM
      1 N         142.3365  141.6557  165.1618 N.3     1  UNL1       -0.2725
      2 C         143.5763  142.4789  165.3503 C.3     1  UNL1        0.0749
      3 C         143.7202  143.7916  164.6389 C.3     1  UNL1        0.0517
      4 C         142.6244  144.2811  163.7390 C.3     1  UNL1        0.1544
      5 F         143.6014  145.4106  163.5979 F       1  UNL1       -0.2382
      6 C         141.3847  143.4579  163.5506 C.3     1  UNL1        0.0517
      7 C         141.2408  142.1452  164.2620 C.3     1  UNL1        0.0749
      8 C         142.1926  140.3430  165.8732 C.3     1  UNL1        0.0722
      9 C         138.5944  140.2071  169.9890 C.3     1  UNL1        0.0296
     10 C         139.5706  140.2355  168.8505 C.3     1  UNL1        0.0930
     11 C         140.3451  141.0079  169.8769 C.3     1  UNL1        0.0296
     12 C         140.8157  140.5321  168.0684 C.3     1  UNL1        0.0287
     13 C         140.9474  140.0464  166.6553 C.3     1  UNL1        0.0208
     14 C         139.8339  139.2641  166.0243 C.3     1  UNL1        0.0335
     15 C         138.5888  138.9675  166.8064 C.3     1  UNL1        0.1420
     16 O         138.4572  139.4532  168.2195 O.3     1  UNL1       -0.3585
     17 C         141.8679  145.1629  162.7902 C.3     1  UNL1        0.1224
     18 N         142.0679  145.0182  161.3107 N.am    1  UNL1       -0.2984
     19 C         140.9479  145.3428  160.3672 C.2     1  UNL1        0.2460
     20 O         139.6279  145.8120  160.9033 O.2     1  UNL1       -0.2701
     21 H         142.9343  144.7102  160.9588 H       1  UNL1        0.1498
     22 C         141.1478  145.1981  158.8876 C.ar    1  UNL1        0.0550
     23 C         140.3080  145.9971  157.9357 C.ar    1  UNL1        0.0160
     24 C         140.5079  145.8525  156.4561 C.ar    1  UNL1        0.0587
     25 CL        139.6681  146.6515  155.5041 Cl      1  UNL1       -0.0822
     26 C         141.5476  144.9088  155.9285 C.ar    1  UNL1        0.0228
     27 C         142.3874  144.1097  156.8805 C.ar    1  UNL1        0.0587
     28 CL        143.4271  143.1660  156.3529 Cl      1  UNL1       -0.0822
     29 C         142.1875  144.2543  158.3600 C.ar    1  UNL1        0.0160
@<TRIPOS>BOND
     1     9    10    1
     2    10    11    1
     3    10    12    1
     4    12    13    1
     5    13     8    1
     6     8     1    1
     7     1     2    1
     8     2     3    1
     9     3     4    1
    10     4     5    1
    11     4    17    1
    12    17    18    1
    13    18    19   am
    14    19    20    2
    15    19    22    1
    16    22    23   ar
    17    23    24   ar
    18    24    25    1
    19    24    26   ar
    20    26    27   ar
    21    27    28    1
    22    27    29   ar
    23     4     6    1
    24     6     7    1
    25    13    14    1
    26    14    15    1
    27    15    16    1
    28    16    10    1
    29     7     1    1
    30    29    22   ar
    31    18    21    1
@<TRIPOS>MOLECULE
*****
 29 31 0 0 0
SMALL
GASTEIGER

@<TRIPOS>ATOM
      1 N         139.2291  141.1905  165.3102 N.3     1  UNL1       -0.2725
      2 C         139.6282  142.4518  166.0174 C.3     1  UNL1        0.0749
      3 C         139.4151  143.7816  165.3568 C.3     1  UNL1        0.0517
      4 C         138.8029  143.8501  163.9891 C.3     1  UNL1        0.1544
      5 F         139.0150  145.3114  164.2531 F       1  UNL1       -0.2382
      6 C         138.4039  142.5889  163.2820 C.3     1  UNL1        0.0517
      7 C         138.6170  141.2591  163.9425 C.3     1  UNL1        0.0749
      8 C         139.4421  139.8608  165.9707 C.3     1  UNL1        0.0722
      9 C         142.6634  139.5997  170.3821 C.3     1  UNL1        0.0296
     10 C         141.7927  139.6659  169.1624 C.3     1  UNL1        0.0930
     11 C         140.8168  140.1264  170.2044 C.3     1  UNL1        0.0296
     12 C         140.5831  139.8920  168.3046 C.3     1  UNL1        0.0287
     13 C         140.6518  139.6347  166.8285 C.3     1  UNL1        0.0208
     14 C         141.9300  139.1513  166.2101 C.3     1  UNL1        0.0335
     15 C         143.1395  138.9252  167.0679 C.3     1  UNL1        0.1420
     16 O         143.0709  139.1825  168.5440 O.3     1  UNL1       -0.3585
     17 C         138.2645  144.4262  162.7131 C.3     1  UNL1        0.1224
     18 N         139.0188  144.2415  161.4298 N.am    1  UNL1       -0.2984
     19 C         139.9238  145.3278  160.9288 C.2     1  UNL1        0.2460
     20 O         140.0743  146.5987  161.7111 O.2     1  UNL1       -0.2701
     21 H         138.9199  143.4073  160.9163 H       1  UNL1        0.1498
     22 C         140.6781  145.1432  159.6455 C.ar    1  UNL1        0.0550
     23 C         140.2509  145.8812  158.4115 C.ar    1  UNL1        0.0160
     24 C         141.0052  145.6967  157.1282 C.ar    1  UNL1        0.0587
     25 CL        140.5779  146.4347  155.8942 Cl      1  UNL1       -0.0822
     26 C         142.1868  144.7740  157.0789 C.ar    1  UNL1        0.0228
     27 C         142.6141  144.0359  158.3129 C.ar    1  UNL1        0.0587
     28 CL        143.7957  143.1132  158.2635 Cl      1  UNL1       -0.0822
     29 C         141.8598  144.2205  159.5962 C.ar    1  UNL1        0.0160
@<TRIPOS>BOND
     1     9    10    1
     2    10    11    1
     3    10    12    1
     4    12    13    1
     5    13     8    1
     6     8     1    1
     7     1     2    1
     8     2     3    1
     9     3     4    1
    10     4     5    1
    11     4    17    1
    12    17    18    1
    13    18    19   am
    14    19    20    2
    15    19    22    1
    16    22    23   ar
    17    23    24   ar
    18    24    25    1
    19    24    26   ar
    20    26    27   ar
    21    27    28    1
    22    27    29   ar
    23     4     6    1
    24     6     7    1
    25    13    14    1
    26    14    15    1
    27    15    16    1
    28    16    10    1
    29     7     1    1
    30    29    22   ar
    31    18    21    1
@<TRIPOS>MOLECULE
*****
 29 31 0 0 0
SMALL
GASTEIGER

@<TRIPOS>ATOM
      1 N         142.9027  142.3574  165.6872 N.3     1  UNL1       -0.2725
      2 C         144.1672  143.1120  165.4010 C.3     1  UNL1        0.0749
      3 C         144.1499  144.2708  164.4487 C.3     1  UNL1        0.0517
      4 C         142.8681  144.6750  163.7826 C.3     1  UNL1        0.1544
      5 F         143.7998  145.6927  163.1941 F       1  UNL1       -0.2382
      6 C         141.6037  143.9205  164.0688 C.3     1  UNL1        0.0517
      7 C         141.6210  142.7617  165.0211 C.3     1  UNL1        0.0749
      8 C         142.9200  141.1986  166.6395 C.3     1  UNL1        0.0722
      9 C         138.7356  140.3458  170.0555 C.3     1  UNL1        0.0296
     10 C         139.8915  140.5885  169.1306 C.3     1  UNL1        0.0930
     11 C         138.9981  139.7908  168.2274 C.3     1  UNL1        0.0296
     12 C         140.7370  140.5541  167.8922 C.3     1  UNL1        0.0287
     13 C         142.0745  141.2331  167.8781 C.3     1  UNL1        0.0208
     14 C         142.5664  141.9464  169.1024 C.3     1  UNL1        0.0335
     15 C         141.7209  141.9808  170.3409 C.3     1  UNL1        0.1420
     16 O         140.3834  141.3018  170.3550 O.3     1  UNL1       -0.3585
     17 C         141.9099  145.4328  162.9120 C.3     1  UNL1        0.1224
     18 N         141.7079  145.0211  161.4839 N.am    1  UNL1       -0.2984
     19 C         140.4481  145.4024  160.7645 C.2     1  UNL1        0.2460
     20 O         139.3904  146.1953  161.4733 O.2     1  UNL1       -0.2701
     21 H         142.4022  144.5007  161.0186 H       1  UNL1        0.1498
     22 C         140.2460  144.9908  159.3363 C.ar    1  UNL1        0.0550
     23 C         140.5846  145.9416  158.2267 C.ar    1  UNL1        0.0160
     24 C         140.3825  145.5301  156.7985 C.ar    1  UNL1        0.0587
     25 CL        140.7212  146.4808  155.6888 Cl      1  UNL1       -0.0822
     26 C         139.8418  144.1676  156.4799 C.ar    1  UNL1        0.0228
     27 C         139.5032  143.2168  157.5896 C.ar    1  UNL1        0.0587
     28 CL        138.9625  141.8544  157.2710 Cl      1  UNL1       -0.0822
     29 C         139.7053  143.6284  159.0178 C.ar    1  UNL1        0.0160
@<TRIPOS>BOND
     1     9    10    1
     2    10    11    1
     3    10    12    1
     4    12    13    1
     5    13     8    1
     6     8     1    1
     7     1     2    1
     8     2     3    1
     9     3     4    1
    10     4     5    1
    11     4    17    1
    12    17    18    1
    13    18    19   am
    14    19    20    2
    15    19    22    1
    16    22    23   ar
    17    23    24   ar
    18    24    25    1
    19    24    26   ar
    20    26    27   ar
    21    27    28    1
    22    27    29   ar
    23     4     6    1
    24     6     7    1
    25    13    14    1
    26    14    15    1
    27    15    16    1
    28    16    10    1
    29     7     1    1
    30    29    22   ar
    31    18    21    1
@<TRIPOS>MOLECULE
*****
 29 31 0 0 0
SMALL
GASTEIGER

@<TRIPOS>ATOM
      1 N         141.0015  138.4249  159.8436 N.3     1  UNL1       -0.2725
      2 C         139.5450  138.4404  160.2021 C.3     1  UNL1        0.0749
      3 C         139.1132  138.1090  161.5998 C.3     1  UNL1        0.0517
      4 C         140.1378  137.7621  162.6390 C.3     1  UNL1        0.1544
      5 F         138.8862  137.6427  163.4572 F       1  UNL1       -0.2382
      6 C         141.5942  137.7466  162.2805 C.3     1  UNL1        0.0517
      7 C         142.0261  138.0781  160.8828 C.3     1  UNL1        0.0749
      8 C         141.4334  138.7563  158.4458 C.3     1  UNL1        0.0722
      9 C         142.4828  134.6824  154.9520 C.3     1  UNL1        0.0296
     10 C         142.1794  135.8016  155.9036 C.3     1  UNL1        0.0930
     11 C         143.5791  135.4700  156.3291 C.3     1  UNL1        0.0296
     12 C         142.3622  136.8055  157.0030 C.3     1  UNL1        0.0287
     13 C         141.2506  137.7523  157.3464 C.3     1  UNL1        0.0208
     14 C         139.9563  137.6952  156.5905 C.3     1  UNL1        0.0335
     15 C         139.7735  136.6912  155.4912 C.3     1  UNL1        0.1420
     16 O         140.8851  135.7444  155.1477 O.3     1  UNL1       -0.3585
     17 C         140.7277  137.3737  163.9624 C.3     1  UNL1        0.1224
     18 N         140.5506  138.2678  165.1538 N.am    1  UNL1       -0.2984
     19 C         141.7519  138.8205  165.8618 C.2     1  UNL1        0.2460
     20 O         143.1303  138.4791  165.3785 O.2     1  UNL1       -0.2701
     21 H         139.6459  138.4918  165.4710 H       1  UNL1        0.1498
     22 C         141.5749  139.7145  167.0532 C.ar    1  UNL1        0.0550
     23 C         140.2978  139.6731  167.8387 C.ar    1  UNL1        0.0160
     24 C         140.1207  140.5671  169.0301 C.ar    1  UNL1        0.0587
     25 CL        138.8435  140.5258  169.8157 Cl      1  UNL1       -0.0822
     26 C         141.2208  141.5026  169.4359 C.ar    1  UNL1        0.0228
     27 C         142.4980  141.5439  168.6504 C.ar    1  UNL1        0.0587
     28 CL        143.5982  142.4793  169.0562 Cl      1  UNL1       -0.0822
     29 C         142.6751  140.6499  167.4590 C.ar    1  UNL1        0.0160
@<TRIPOS>BOND
     1     9    10    1
     2    10    11    1
     3    10    12    1
     4    12    13    1
     5    13     8    1
     6     8     1    1
     7     1     2    1
     8     2     3    1
     9     3     4    1
    10     4     5    1
    11     4    17    1
    12    17    18    1
    13    18    19   am
    14    19    20    2
    15    19    22    1
    16    22    23   ar
    17    23    24   ar
    18    24    25    1
    19    24    26   ar
    20    26    27   ar
    21    27    28    1
    22    27    29   ar
    23     4     6    1
    24     6     7    1
    25    13    14    1
    26    14    15    1
    27    15    16    1
    28    16    10    1
    29     7     1    1
    30    29    22   ar
    31    18    21    1
@<TRIPOS>MOLECULE
*****
 29 31 0 0 0
SMALL
GASTEIGER

@<TRIPOS>ATOM
      1 N         138.7028  139.2369  165.8201 N.3     1  UNL1       -0.2725
      2 C         138.9783  137.8714  165.2636 C.3     1  UNL1        0.0749
      3 C         138.8285  137.6167  163.7930 C.3     1  UNL1        0.0517
      4 C         138.4032  138.7275  162.8789 C.3     1  UNL1        0.1544
      5 F         138.5485  137.6134  161.8850 F       1  UNL1       -0.2382
      6 C         138.1278  140.0928  163.4355 C.3     1  UNL1        0.0517
      7 C         138.2776  140.3476  164.9061 C.3     1  UNL1        0.0749
      8 C         138.8526  139.4916  167.2908 C.3     1  UNL1        0.0722
      9 C         141.9236  142.9765  170.1768 C.3     1  UNL1        0.0296
     10 C         141.0952  142.0150  169.3773 C.3     1  UNL1        0.0930
     11 C         140.0203  142.6669  170.1957 C.3     1  UNL1        0.0296
     12 C         139.8935  141.2798  168.8620 C.3     1  UNL1        0.0287
     13 C         140.0544  140.2267  167.8060 C.3     1  UNL1        0.0208
     14 C         141.4169  139.9088  167.2653 C.3     1  UNL1        0.0335
     15 C         142.6185  140.6439  167.7805 C.3     1  UNL1        0.1420
     16 O         142.4577  141.6970  168.8365 O.3     1  UNL1       -0.3585
     17 C         138.0284  139.4513  161.6197 C.3     1  UNL1        0.1224
     18 N         138.5853  140.8168  161.3455 N.am    1  UNL1       -0.2984
     19 C         138.6290  141.3407  159.9406 C.2     1  UNL1        0.2460
     20 O         138.1160  140.4991  158.8100 O.2     1  UNL1       -0.2701
     21 H         138.9221  141.3692  162.0876 H       1  UNL1        0.1498
     22 C         139.1859  142.7063  159.6664 C.ar    1  UNL1        0.0550
     23 C         139.3923  143.1620  158.2523 C.ar    1  UNL1        0.0160
     24 C         139.9491  144.5275  157.9780 C.ar    1  UNL1        0.0587
     25 CL        140.1555  144.9832  156.5639 Cl      1  UNL1       -0.0822
     26 C         140.2996  145.4374  159.1179 C.ar    1  UNL1        0.0228
     27 C         140.0932  144.9817  160.5320 C.ar    1  UNL1        0.0587
     28 CL        140.4436  145.8916  161.6719 Cl      1  UNL1       -0.0822
     29 C         139.5363  143.6161  160.8063 C.ar    1  UNL1        0.0160
@<TRIPOS>BOND
     1     9    10    1
     2    10    11    1
     3    10    12    1
     4    12    13    1
     5    13     8    1
     6     8     1    1
     7     1     2    1
     8     2     3    1
     9     3     4    1
    10     4     5    1
    11     4    17    1
    12    17    18    1
    13    18    19   am
    14    19    20    2
    15    19    22    1
    16    22    23   ar
    17    23    24   ar
    18    24    25    1
    19    24    26   ar
    20    26    27   ar
    21    27    28    1
    22    27    29   ar
    23     4     6    1
    24     6     7    1
    25    13    14    1
    26    14    15    1
    27    15    16    1
    28    16    10    1
    29     7     1    1
    30    29    22   ar
    31    18    21    1
