@<TRIPOS>MOLECULE
*****
 29 34 0 0 0
SMALL
GASTEIGER

@<TRIPOS>ATOM
      1 N         139.0345  144.2830  164.7057 N.pl3   1  UNL1       -0.3133
      2 C         138.8298  143.3503  163.5489 C.2     1  UNL1        0.2770
      3 N         138.8305  141.8517  163.6139 N.2     1  UNL1       -0.2204
      4 C         138.5896  141.3277  162.2291 C.3     1  UNL1        0.1537
      5 C         138.4400  142.5024  161.3085 C.3     1  UNL1        0.2350
      6 O         138.5885  143.7524  162.1241 O.2     1  UNL1       -0.4478
      7 C         138.7598  140.2569  163.2658 C.ar    1  UNL1        0.0355
      8 C         139.0076  140.6312  164.6970 C.ar    1  UNL1        0.0005
      9 C         139.1778  139.5604  165.7336 C.ar    1  UNL1       -0.0000
     10 C         139.1001  138.1153  165.3389 C.ar    1  UNL1        0.0029
     11 C         138.8522  137.7410  163.9076 C.ar    1  UNL1        0.0366
     12 C         138.6821  138.8118  162.8711 C.ar    1  UNL1        0.1364
     13 O         138.4342  138.4375  161.4398 O.3     1  UNL1       -0.4756
     14 C         138.2641  139.5083  160.4032 C.3     1  UNL1        0.2074
     15 C         138.3418  140.9534  160.7979 C.3     1  UNL1        0.0666
     16 C         138.2884  142.4058  160.4273 C.3     1  UNL1        0.0061
     17 C         138.1005  141.3555  159.3731 C.3     1  UNL1        0.0061
     18 H         139.1867  143.9214  165.6086 H       1  UNL1        0.1466
     19 H         139.0167  145.2568  164.5620 H       1  UNL1        0.1466
     20 C         139.4256  139.9347  167.1648 C.2     1  UNL1        0.0292
     21 C         138.4596  139.5074  168.2299 C.2     1  UNL1        0.2320
     22 N         138.7075  139.8817  169.6611 N.2     1  UNL1       -0.0311
     23 C         139.9213  140.6833  170.0273 C.2     1  UNL1        0.3728
     24 N         140.4254  141.1969  171.3434 N.2     1  UNL1       -0.0298
     25 C         141.7029  141.9416  171.0917 C.2     1  UNL1        0.2471
     26 C         141.9884  141.8883  169.6202 C.2     1  UNL1        0.1081
     27 CL        143.1678  142.5044  168.9279 Cl      1  UNL1       -0.0783
     28 C         140.8873  141.1106  168.9623 C.2     1  UNL1        0.0849
     29 C         140.6394  140.7362  167.5310 C.3     1  UNL1        0.0654
@<TRIPOS>BOND
     1     1     2    1
     2     2     3    2
     3     3     4    1
     4     4     5    1
     5     5     6    1
     6     4     7    1
     7     7     8   ar
     8     8     9   ar
     9     9    20    1
    10    20    21    2
    11    21    22    1
    12    22    23    2
    13    23    24    1
    14    24    25    2
    15    25    26    1
    16    26    27    1
    17    26    28    2
    18    28    29    1
    19     9    10   ar
    20    10    11   ar
    21    11    12   ar
    22    12    13    1
    23    13    14    1
    24    14    15    1
    25    15    16    1
    26    16    17    1
    27     6     2    1
    28    12     7   ar
    29    17    15    1
    30    15     4    1
    31    29    20    1
    32    28    23    1
    33     1    18    1
    34     1    19    1
@<TRIPOS>MOLECULE
*****
 29 34 0 0 0
SMALL
GASTEIGER

@<TRIPOS>ATOM
      1 N         143.6244  140.6464  162.7971 N.pl3   1  UNL1       -0.3133
      2 C         142.9246  141.7746  162.0987 C.2     1  UNL1        0.2770
      3 N         141.8388  142.6319  162.6782 N.2     1  UNL1       -0.2204
      4 C         141.4309  143.6306  161.6358 C.3     1  UNL1        0.1537
      5 C         142.2646  143.3902  160.4123 C.3     1  UNL1        0.2350
      6 O         143.1877  142.2432  160.6983 O.2     1  UNL1       -0.4478
      7 C         140.6749  143.7516  162.9258 C.ar    1  UNL1        0.0355
      8 C         140.9751  142.8189  164.0614 C.ar    1  UNL1        0.0005
      9 C         140.2191  142.9399  165.3514 C.ar    1  UNL1       -0.0000
     10 C         139.1629  143.9938  165.5056 C.ar    1  UNL1        0.0029
     11 C         138.8627  144.9266  164.3699 C.ar    1  UNL1        0.0366
     12 C         139.6187  144.8055  163.0800 C.ar    1  UNL1        0.1364
     13 O         139.3184  145.7383  161.9443 O.3     1  UNL1       -0.4756
     14 C         140.0744  145.6172  160.6544 C.3     1  UNL1        0.2074
     15 C         141.1306  144.5634  160.5002 C.3     1  UNL1        0.0666
     16 C         142.1769  143.8850  159.6664 C.3     1  UNL1        0.0061
     17 C         141.3938  145.0320  159.0998 C.3     1  UNL1        0.0061
     18 H         143.3802  140.4128  163.7218 H       1  UNL1        0.1466
     19 H         144.3280  140.1397  162.3308 H       1  UNL1        0.1466
     20 C         140.5193  142.0071  166.4870 C.2     1  UNL1        0.0292
     21 C         139.6678  140.7915  166.7043 C.2     1  UNL1        0.2320
     22 N         139.9681  139.8587  167.8399 N.2     1  UNL1       -0.0311
     23 C         141.1198  140.1416  168.7584 C.2     1  UNL1        0.3728
     24 N         141.6540  139.4090  169.9534 N.2     1  UNL1       -0.0298
     25 C         142.8355  140.1720  170.4747 C.2     1  UNL1        0.2471
     26 C         143.0317  141.3760  169.6019 C.2     1  UNL1        0.1081
     27 CL        144.1005  142.4162  169.7618 Cl      1  UNL1       -0.0783
     28 C         141.9713  141.3572  168.5412 C.2     1  UNL1        0.0849
     29 C         141.6710  142.2900  167.4054 C.3     1  UNL1        0.0654
@<TRIPOS>BOND
     1     1     2    1
     2     2     3    2
     3     3     4    1
     4     4     5    1
     5     5     6    1
     6     4     7    1
     7     7     8   ar
     8     8     9   ar
     9     9    20    1
    10    20    21    2
    11    21    22    1
    12    22    23    2
    13    23    24    1
    14    24    25    2
    15    25    26    1
    16    26    27    1
    17    26    28    2
    18    28    29    1
    19     9    10   ar
    20    10    11   ar
    21    11    12   ar
    22    12    13    1
    23    13    14    1
    24    14    15    1
    25    15    16    1
    26    16    17    1
    27     6     2    1
    28    12     7   ar
    29    17    15    1
    30    15     4    1
    31    29    20    1
    32    28    23    1
    33     1    18    1
    34     1    19    1
@<TRIPOS>MOLECULE
*****
 29 34 0 0 0
SMALL
GASTEIGER

@<TRIPOS>ATOM
      1 N         143.6426  141.8958  165.4139 N.pl3   1  UNL1       -0.3133
      2 C         142.7918  141.7536  166.6411 C.2     1  UNL1        0.2770
      3 N         141.5279  140.9533  166.7498 N.2     1  UNL1       -0.2204
      4 C         141.0105  141.0920  168.1509 C.3     1  UNL1        0.1537
      5 C         141.9548  141.9780  168.9082 C.3     1  UNL1        0.2350
      6 O         143.0557  142.3869  167.9751 O.2     1  UNL1       -0.4478
      7 C         140.1604  140.2257  167.2695 C.ar    1  UNL1        0.0355
      8 C         140.5535  139.9952  165.8405 C.ar    1  UNL1        0.0005
      9 C         139.7034  139.1289  164.9591 C.ar    1  UNL1       -0.0000
     10 C         138.4601  138.4931  165.5068 C.ar    1  UNL1        0.0029
     11 C         138.0669  138.7237  166.9359 C.ar    1  UNL1        0.0366
     12 C         138.9171  139.5899  167.8172 C.ar    1  UNL1        0.1364
     13 O         138.5239  139.8205  169.2464 O.3     1  UNL1       -0.4756
     14 C         139.3741  140.6867  170.1277 C.3     1  UNL1        0.2074
     15 C         140.6174  141.3225  169.5800 C.3     1  UNL1        0.0666
     16 C         141.8260  142.1897  169.7726 C.3     1  UNL1        0.0061
     17 C         140.8812  141.9557  170.9139 C.3     1  UNL1        0.0061
     18 H         143.3851  141.4388  164.5808 H       1  UNL1        0.1466
     19 H         144.4586  142.4460  165.4416 H       1  UNL1        0.1466
     20 C         140.0965  138.8984  163.5300 C.2     1  UNL1        0.0292
     21 C         139.1273  138.2611  162.5789 C.2     1  UNL1        0.2320
     22 N         139.5205  138.0306  161.1499 N.2     1  UNL1       -0.0311
     23 C         140.8829  138.4373  160.6718 C.2     1  UNL1        0.3728
     24 N         141.5474  138.3372  159.3308 N.2     1  UNL1       -0.0298
     25 C         142.9272  138.9125  159.4531 C.2     1  UNL1        0.2471
     26 C         143.1156  139.3683  160.8696 C.2     1  UNL1        0.1081
     27 CL        144.3505  140.0058  161.4340 Cl      1  UNL1       -0.0783
     28 C         141.8521  139.0746  161.6229 C.2     1  UNL1        0.0849
     29 C         141.4589  139.3051  163.0520 C.3     1  UNL1        0.0654
@<TRIPOS>BOND
     1     1     2    1
     2     2     3    2
     3     3     4    1
     4     4     5    1
     5     5     6    1
     6     4     7    1
     7     7     8   ar
     8     8     9   ar
     9     9    20    1
    10    20    21    2
    11    21    22    1
    12    22    23    2
    13    23    24    1
    14    24    25    2
    15    25    26    1
    16    26    27    1
    17    26    28    2
    18    28    29    1
    19     9    10   ar
    20    10    11   ar
    21    11    12   ar
    22    12    13    1
    23    13    14    1
    24    14    15    1
    25    15    16    1
    26    16    17    1
    27     6     2    1
    28    12     7   ar
    29    17    15    1
    30    15     4    1
    31    29    20    1
    32    28    23    1
    33     1    18    1
    34     1    19    1
@<TRIPOS>MOLECULE
*****
 29 34 0 0 0
SMALL
GASTEIGER

@<TRIPOS>ATOM
      1 N         144.2806  141.9287  165.0114 N.pl3   1  UNL1       -0.3133
      2 C         143.8394  141.1279  163.8222 C.2     1  UNL1        0.2770
      3 N         142.6434  140.2246  163.7622 N.2     1  UNL1       -0.2204
      4 C         142.5816  139.6283  162.3872 C.3     1  UNL1        0.1537
      5 C         143.7393  140.1631  161.5975 C.3     1  UNL1        0.2350
      6 O         144.5166  141.0898  162.4844 O.2     1  UNL1       -0.4478
      7 C         141.4762  139.1801  163.2969 C.ar    1  UNL1        0.0355
      8 C         141.4084  139.6941  164.7044 C.ar    1  UNL1        0.0005
      9 C         140.3031  139.2459  165.6141 C.ar    1  UNL1       -0.0000
     10 C         139.2656  138.2838  165.1162 C.ar    1  UNL1        0.0029
     11 C         139.3335  137.7698  163.7086 C.ar    1  UNL1        0.0366
     12 C         140.4388  138.2179  162.7990 C.ar    1  UNL1        0.1364
     13 O         140.5066  137.7039  161.3914 O.3     1  UNL1       -0.4756
     14 C         141.6119  138.1521  160.4818 C.3     1  UNL1        0.2074
     15 C         142.6494  139.1142  160.9796 C.3     1  UNL1        0.0666
     16 C         143.8865  139.9285  160.7419 C.3     1  UNL1        0.0061
     17 C         143.3267  139.0762  159.6418 C.3     1  UNL1        0.0061
     18 H         143.7673  141.8875  165.8505 H       1  UNL1        0.1466
     19 H         145.0835  142.4954  164.9528 H       1  UNL1        0.1466
     20 C         140.2353  139.7600  167.0216 C.2     1  UNL1        0.0292
     21 C         139.0054  139.5248  167.8475 C.2     1  UNL1        0.2320
     22 N         138.9376  140.0388  169.2551 N.2     1  UNL1       -0.0311
     23 C         140.0997  140.7880  169.8367 C.2     1  UNL1        0.3728
     24 N         140.3206  141.4090  171.1842 N.2     1  UNL1       -0.0298
     25 C         141.6868  142.0279  171.1910 C.2     1  UNL1        0.2471
     26 C         142.3105  141.7895  169.8479 C.2     1  UNL1        0.1081
     27 CL        143.6754  142.2386  169.4172 Cl      1  UNL1       -0.0783
     28 C         141.3296  141.0232  169.0108 C.2     1  UNL1        0.0849
     29 C         141.3974  140.5092  167.6032 C.3     1  UNL1        0.0654
@<TRIPOS>BOND
     1     1     2    1
     2     2     3    2
     3     3     4    1
     4     4     5    1
     5     5     6    1
     6     4     7    1
     7     7     8   ar
     8     8     9   ar
     9     9    20    1
    10    20    21    2
    11    21    22    1
    12    22    23    2
    13    23    24    1
    14    24    25    2
    15    25    26    1
    16    26    27    1
    17    26    28    2
    18    28    29    1
    19     9    10   ar
    20    10    11   ar
    21    11    12   ar
    22    12    13    1
    23    13    14    1
    24    14    15    1
    25    15    16    1
    26    16    17    1
    27     6     2    1
    28    12     7   ar
    29    17    15    1
    30    15     4    1
    31    29    20    1
    32    28    23    1
    33     1    18    1
    34     1    19    1
@<TRIPOS>MOLECULE
*****
 29 34 0 0 0
SMALL
GASTEIGER

@<TRIPOS>ATOM
      1 N         142.9564  142.4291  163.9873 N.pl3   1  UNL1       -0.3133
      2 C         142.6990  142.1379  165.4361 C.2     1  UNL1        0.2770
      3 N         141.5534  141.3402  165.9850 N.2     1  UNL1       -0.2204
      4 C         141.6885  141.3026  167.4785 C.3     1  UNL1        0.1537
      5 C         142.9175  142.0770  167.8525 C.3     1  UNL1        0.2350
      6 O         143.5420  142.5932  166.5903 O.2     1  UNL1       -0.4478
      7 C         140.4931  140.5628  166.9551 C.ar    1  UNL1        0.0355
      8 C         140.2283  140.5139  165.4795 C.ar    1  UNL1        0.0005
      9 C         139.0330  139.7741  164.9561 C.ar    1  UNL1       -0.0000
     10 C         138.1023  139.0834  165.9083 C.ar    1  UNL1        0.0029
     11 C         138.3671  139.1323  167.3840 C.ar    1  UNL1        0.0366
     12 C         139.5625  139.8720  167.9074 C.ar    1  UNL1        0.1364
     13 O         139.8272  139.9210  169.3831 O.3     1  UNL1       -0.4756
     14 C         141.0226  140.6607  169.9064 C.3     1  UNL1        0.2074
     15 C         141.9532  141.3515  168.9542 C.3     1  UNL1        0.0666
     16 C         143.1806  142.1774  168.7066 C.3     1  UNL1        0.0061
     17 C         142.7962  141.8068  170.1083 C.3     1  UNL1        0.0061
     18 H         142.3423  142.0845  163.2993 H       1  UNL1        0.1466
     19 H         143.7394  142.9648  163.7245 H       1  UNL1        0.1466
     20 C         138.7682  139.7252  163.4805 C.2     1  UNL1        0.0292
     21 C         138.3058  138.4484  162.8434 C.2     1  UNL1        0.2320
     22 N         138.0411  138.3994  161.3678 N.2     1  UNL1       -0.0311
     23 C         138.2388  139.6274  160.5292 C.2     1  UNL1        0.3728
     24 N         138.0591  139.8802  159.0616 N.2     1  UNL1       -0.0298
     25 C         138.4104  141.3132  158.7917 C.2     1  UNL1        0.2471
     26 C         138.8072  141.9461  160.0924 C.2     1  UNL1        0.1081
     27 CL        139.2350  143.3708  160.2855 Cl      1  UNL1       -0.0783
     28 C         138.7012  140.9042  161.1663 C.2     1  UNL1        0.0849
     29 C         138.9659  140.9531  162.6420 C.3     1  UNL1        0.0654
@<TRIPOS>BOND
     1     1     2    1
     2     2     3    2
     3     3     4    1
     4     4     5    1
     5     5     6    1
     6     4     7    1
     7     7     8   ar
     8     8     9   ar
     9     9    20    1
    10    20    21    2
    11    21    22    1
    12    22    23    2
    13    23    24    1
    14    24    25    2
    15    25    26    1
    16    26    27    1
    17    26    28    2
    18    28    29    1
    19     9    10   ar
    20    10    11   ar
    21    11    12   ar
    22    12    13    1
    23    13    14    1
    24    14    15    1
    25    15    16    1
    26    16    17    1
    27     6     2    1
    28    12     7   ar
    29    17    15    1
    30    15     4    1
    31    29    20    1
    32    28    23    1
    33     1    18    1
    34     1    19    1
@<TRIPOS>MOLECULE
*****
 29 34 0 0 0
SMALL
GASTEIGER

@<TRIPOS>ATOM
      1 N         138.9693  144.7059  165.4240 N.pl3   1  UNL1       -0.3133
      2 C         139.6324  144.6596  164.0793 C.2     1  UNL1        0.2770
      3 N         140.8122  143.8115  163.7069 N.2     1  UNL1       -0.2204
      4 C         141.1411  144.0810  162.2684 C.3     1  UNL1        0.1537
      5 C         140.1646  145.0957  161.7519 C.3     1  UNL1        0.2350
      6 O         139.2322  145.4532  162.8710 O.2     1  UNL1       -0.4478
      7 C         142.0430  143.0767  162.9227 C.ar    1  UNL1        0.0355
      8 C         141.8344  142.7064  164.3612 C.ar    1  UNL1        0.0005
      9 C         142.7363  141.7021  165.0155 C.ar    1  UNL1       -0.0000
     10 C         143.8468  141.0682  164.2313 C.ar    1  UNL1        0.0029
     11 C         144.0554  141.4386  162.7927 C.ar    1  UNL1        0.0366
     12 C         143.1535  142.4429  162.1385 C.ar    1  UNL1        0.1364
     13 O         143.3621  142.8133  160.6999 O.3     1  UNL1       -0.4756
     14 C         142.4602  143.8175  160.0457 C.3     1  UNL1        0.2074
     15 C         141.3497  144.4514  160.8299 C.3     1  UNL1        0.0666
     16 C         140.1879  145.3971  160.9049 C.3     1  UNL1        0.0061
     17 C         140.9495  145.2450  159.6216 C.3     1  UNL1        0.0061
     18 H         139.3067  144.1444  166.1589 H       1  UNL1        0.1466
     19 H         138.1966  145.2979  165.5717 H       1  UNL1        0.1466
     20 C         142.5277  141.3317  166.4540 C.2     1  UNL1        0.0292
     21 C         142.9707  139.9889  166.9546 C.2     1  UNL1        0.2320
     22 N         142.7620  139.6185  168.3930 N.2     1  UNL1       -0.0311
     23 C         142.1105  140.5910  169.3310 C.2     1  UNL1        0.3728
     24 N         141.7750  140.5067  170.7906 N.2     1  UNL1       -0.0298
     25 C         141.1248  141.7974  171.1921 C.2     1  UNL1        0.2471
     26 C         141.0584  142.6795  169.9807 C.2     1  UNL1        0.1081
     27 CL        140.4836  144.0640  169.9286 Cl      1  UNL1       -0.0783
     28 C         141.6675  141.9339  168.8305 C.2     1  UNL1        0.0849
     29 C         141.8762  142.3042  167.3919 C.3     1  UNL1        0.0654
@<TRIPOS>BOND
     1     1     2    1
     2     2     3    2
     3     3     4    1
     4     4     5    1
     5     5     6    1
     6     4     7    1
     7     7     8   ar
     8     8     9   ar
     9     9    20    1
    10    20    21    2
    11    21    22    1
    12    22    23    2
    13    23    24    1
    14    24    25    2
    15    25    26    1
    16    26    27    1
    17    26    28    2
    18    28    29    1
    19     9    10   ar
    20    10    11   ar
    21    11    12   ar
    22    12    13    1
    23    13    14    1
    24    14    15    1
    25    15    16    1
    26    16    17    1
    27     6     2    1
    28    12     7   ar
    29    17    15    1
    30    15     4    1
    31    29    20    1
    32    28    23    1
    33     1    18    1
    34     1    19    1
@<TRIPOS>MOLECULE
*****
 29 34 0 0 0
SMALL
GASTEIGER

@<TRIPOS>ATOM
      1 N         144.9169  139.1967  163.3130 N.pl3   1  UNL1       -0.3133
      2 C         143.8837  139.0071  162.2421 C.2     1  UNL1        0.2770
      3 N         142.3968  139.0562  162.4332 N.2     1  UNL1       -0.2204
      4 C         141.7502  138.8146  161.1014 C.3     1  UNL1        0.1537
      5 C         142.8376  138.6162  160.0874 C.3     1  UNL1        0.2350
      6 O         144.1561  138.7352  160.7924 O.2     1  UNL1       -0.4478
      7 C         140.7767  139.0317  162.2218 C.ar    1  UNL1        0.0355
      8 C         141.2783  139.2856  163.6125 C.ar    1  UNL1        0.0005
      9 C         140.3049  139.5027  164.7329 C.ar    1  UNL1       -0.0000
     10 C         138.8299  139.4659  164.4626 C.ar    1  UNL1        0.0029
     11 C         138.3283  139.2120  163.0719 C.ar    1  UNL1        0.0366
     12 C         139.3017  138.9949  161.9515 C.ar    1  UNL1        0.1364
     13 O         138.8002  138.7411  160.5608 O.3     1  UNL1       -0.4756
     14 C         139.7736  138.5240  159.4404 C.3     1  UNL1        0.2074
     15 C         141.2486  138.5607  159.7107 C.3     1  UNL1        0.0666
     16 C         142.6621  138.4566  159.2199 C.3     1  UNL1        0.0061
     17 C         141.5210  138.2888  158.2609 C.3     1  UNL1        0.0061
     18 H         144.6379  139.3716  164.2408 H       1  UNL1        0.1466
     19 H         145.8740  139.1461  163.0880 H       1  UNL1        0.1466
     20 C         140.8064  139.7565  166.1236 C.2     1  UNL1        0.0292
     21 C         142.2780  139.9022  166.3752 C.2     1  UNL1        0.2320
     22 N         142.7796  140.1560  167.7658 N.2     1  UNL1       -0.0311
     23 C         141.8096  140.2642  168.9049 C.2     1  UNL1        0.3728
     24 N         142.0071  140.5081  170.3718 N.2     1  UNL1       -0.0298
     25 C         140.6576  140.5131  171.0266 C.2     1  UNL1        0.2471
     26 C         139.6261  140.2724  169.9646 C.2     1  UNL1        0.1081
     27 CL        138.1430  140.1985  170.1766 Cl      1  UNL1       -0.0783
     28 C         140.3380  140.1186  168.6533 C.2     1  UNL1        0.0849
     29 C         139.8365  139.8647  167.2626 C.3     1  UNL1        0.0654
@<TRIPOS>BOND
     1     1     2    1
     2     2     3    2
     3     3     4    1
     4     4     5    1
     5     5     6    1
     6     4     7    1
     7     7     8   ar
     8     8     9   ar
     9     9    20    1
    10    20    21    2
    11    21    22    1
    12    22    23    2
    13    23    24    1
    14    24    25    2
    15    25    26    1
    16    26    27    1
    17    26    28    2
    18    28    29    1
    19     9    10   ar
    20    10    11   ar
    21    11    12   ar
    22    12    13    1
    23    13    14    1
    24    14    15    1
    25    15    16    1
    26    16    17    1
    27     6     2    1
    28    12     7   ar
    29    17    15    1
    30    15     4    1
    31    29    20    1
    32    28    23    1
    33     1    18    1
    34     1    19    1
@<TRIPOS>MOLECULE
*****
 29 34 0 0 0
SMALL
GASTEIGER

@<TRIPOS>ATOM
      1 N         143.7336  141.9964  165.5825 N.pl3   1  UNL1       -0.3133
      2 C         142.6579  141.7413  166.5964 C.2     1  UNL1        0.2770
      3 N         141.5253  140.7682  166.4543 N.2     1  UNL1       -0.2204
      4 C         140.6934  140.8401  167.7004 C.3     1  UNL1        0.1537
      5 C         141.3119  141.8577  168.6126 C.3     1  UNL1        0.2350
      6 O         142.5260  142.4146  167.9303 O.2     1  UNL1       -0.4478
      7 C         140.1908  139.8547  166.6872 C.ar    1  UNL1        0.0355
      8 C         140.9219  139.6739  165.3901 C.ar    1  UNL1        0.0005
      9 C         140.4192  138.6885  164.3769 C.ar    1  UNL1       -0.0000
     10 C         139.1854  137.8841  164.6609 C.ar    1  UNL1        0.0029
     11 C         138.4543  138.0650  165.9582 C.ar    1  UNL1        0.0366
     12 C         138.9570  139.0503  166.9713 C.ar    1  UNL1        0.1364
     13 O         138.2259  139.2312  168.2686 O.3     1  UNL1       -0.4756
     14 C         138.7286  140.2165  169.2817 C.3     1  UNL1        0.2074
     15 C         139.9623  141.0210  168.9976 C.3     1  UNL1        0.0666
     16 C         140.9648  142.0543  169.4186 C.3     1  UNL1        0.0061
     17 C         139.8304  141.6943  170.3315 C.3     1  UNL1        0.0061
     18 H         143.7351  141.5017  164.7313 H       1  UNL1        0.1466
     19 H         144.4381  142.6585  165.7682 H       1  UNL1        0.1466
     20 C         141.1503  138.5077  163.0797 C.2     1  UNL1        0.0292
     21 C         142.6049  138.1415  163.0833 C.2     1  UNL1        0.2320
     22 N         143.3360  137.9607  161.7861 N.2     1  UNL1       -0.0311
     23 C         142.6125  138.1459  160.4852 C.2     1  UNL1        0.3728
     24 N         143.0661  138.0352  159.0597 N.2     1  UNL1       -0.0298
     25 C         141.8919  138.3329  158.1752 C.2     1  UNL1        0.2471
     26 C         140.7125  138.6276  159.0539 C.2     1  UNL1        0.1081
     27 CL        139.3304  138.9765  158.5869 Cl      1  UNL1       -0.0783
     28 C         141.1578  138.5120  160.4816 C.2     1  UNL1        0.0849
     29 C         140.4268  138.6929  161.7789 C.3     1  UNL1        0.0654
@<TRIPOS>BOND
     1     1     2    1
     2     2     3    2
     3     3     4    1
     4     4     5    1
     5     5     6    1
     6     4     7    1
     7     7     8   ar
     8     8     9   ar
     9     9    20    1
    10    20    21    2
    11    21    22    1
    12    22    23    2
    13    23    24    1
    14    24    25    2
    15    25    26    1
    16    26    27    1
    17    26    28    2
    18    28    29    1
    19     9    10   ar
    20    10    11   ar
    21    11    12   ar
    22    12    13    1
    23    13    14    1
    24    14    15    1
    25    15    16    1
    26    16    17    1
    27     6     2    1
    28    12     7   ar
    29    17    15    1
    30    15     4    1
    31    29    20    1
    32    28    23    1
    33     1    18    1
    34     1    19    1
@<TRIPOS>MOLECULE
*****
 29 34 0 0 0
SMALL
GASTEIGER

@<TRIPOS>ATOM
      1 N         139.7298  137.5453  163.4786 N.pl3   1  UNL1       -0.3133
      2 C         139.4324  138.5332  162.3896 C.2     1  UNL1        0.2770
      3 N         139.3676  140.0237  162.5451 N.2     1  UNL1       -0.2204
      4 C         139.0426  140.6156  161.2056 C.3     1  UNL1        0.1537
      5 C         138.9066  139.4909  160.2225 C.3     1  UNL1        0.2350
      6 O         139.1475  138.2040  160.9542 O.2     1  UNL1       -0.4478
      7 C         139.2090  141.6309  162.2973 C.ar    1  UNL1        0.0355
      8 C         139.5360  141.1859  163.6919 C.ar    1  UNL1        0.0005
      9 C         139.7024  142.2011  164.7835 C.ar    1  UNL1       -0.0000
     10 C         139.5417  143.6614  164.4805 C.ar    1  UNL1        0.0029
     11 C         139.2146  144.1064  163.0858 C.ar    1  UNL1        0.0366
     12 C         139.0483  143.0911  161.9942 C.ar    1  UNL1        0.1364
     13 O         138.7212  143.5361  160.5995 O.3     1  UNL1       -0.4756
     14 C         138.5549  142.5209  159.5080 C.3     1  UNL1        0.2074
     15 C         138.7156  141.0606  159.8110 C.3     1  UNL1        0.0666
     16 C         138.7123  139.6314  159.3557 C.3     1  UNL1        0.0061
     17 C         138.4307  140.7314  158.3756 C.3     1  UNL1        0.0061
     18 H         139.9048  137.8604  164.3947 H       1  UNL1        0.1466
     19 H         139.7501  136.5818  163.2770 H       1  UNL1        0.1466
     20 C         140.0295  141.7561  166.1781 C.2     1  UNL1        0.0292
     21 C         140.2622  140.3026  166.4664 C.2     1  UNL1        0.2320
     22 N         140.5893  139.8576  167.8610 N.2     1  UNL1       -0.0311
     23 C         140.6836  140.8661  168.9674 C.2     1  UNL1        0.3728
     24 N         140.9869  140.7264  170.4298 N.2     1  UNL1       -0.0298
     25 C         140.9416  142.0935  171.0452 C.2     1  UNL1        0.2471
     26 C         140.6103  143.0782  169.9633 C.2     1  UNL1        0.1081
     27 CL        140.4641  144.5611  170.1353 Cl      1  UNL1       -0.0783
     28 C         140.4508  142.3197  168.6791 C.2     1  UNL1        0.0849
     29 C         140.1238  142.7646  167.2844 C.3     1  UNL1        0.0654
@<TRIPOS>BOND
     1     1     2    1
     2     2     3    2
     3     3     4    1
     4     4     5    1
     5     5     6    1
     6     4     7    1
     7     7     8   ar
     8     8     9   ar
     9     9    20    1
    10    20    21    2
    11    21    22    1
    12    22    23    2
    13    23    24    1
    14    24    25    2
    15    25    26    1
    16    26    27    1
    17    26    28    2
    18    28    29    1
    19     9    10   ar
    20    10    11   ar
    21    11    12   ar
    22    12    13    1
    23    13    14    1
    24    14    15    1
    25    15    16    1
    26    16    17    1
    27     6     2    1
    28    12     7   ar
    29    17    15    1
    30    15     4    1
    31    29    20    1
    32    28    23    1
    33     1    18    1
    34     1    19    1
