@<TRIPOS>MOLECULE
*****
 34 37 0 0 0
SMALL
GASTEIGER

@<TRIPOS>ATOM
      1 C         137.9658  139.7122  161.8454 C.3     1  UNL1        0.2722
      2 C         138.4172  140.4474  160.6183 C.2     1  UNL1        0.2701
      3 O         139.0407  139.6951  159.4802 O.2     1  UNL1       -0.2707
      4 N         138.2451  141.9348  160.5293 N.am    1  UNL1       -0.2663
      5 H         137.8359  142.4285  161.2763 H       1  UNL1        0.1564
      6 C         138.6965  142.6699  159.3022 C.ar    1  UNL1        0.1343
      7 C         139.8685  143.6033  159.3756 C.ar    1  UNL1        0.0354
      8 C         140.3198  144.3384  158.1486 C.ar    1  UNL1        0.0158
      9 C         139.5992  144.1402  156.8479 C.ar    1  UNL1        0.0769
     10 CL        140.0506  144.8754  155.6208 Cl      1  UNL1       -0.0806
     11 C         138.4273  143.2069  156.7745 C.ar    1  UNL1        0.1116
     12 N         137.9759  142.4717  158.0017 N.ar    1  UNL1       -0.2281
     13 C         138.0295  138.2142  161.8883 C.3     1  UNL1        0.1950
     14 O         138.7155  137.5250  163.0304 O.3     1  UNL1       -0.3519
     15 C         141.0386  137.8479  161.9128 C.3     1  UNL1        0.0320
     16 C         140.2123  137.5426  163.1269 C.3     1  UNL1        0.1156
     17 C         140.8828  137.2547  164.4375 C.3     1  UNL1        0.0320
     18 O         137.4507  140.4752  163.0298 O.3     1  UNL1       -0.4517
     19 C         138.4133  141.0904  164.0019 C.ar    1  UNL1        0.2312
     20 N         139.1376  142.3538  163.6425 N.ar    1  UNL1       -0.1892
     21 C         140.1001  142.9690  164.6146 C.ar    1  UNL1        0.2029
     22 N         140.3382  142.3208  165.9462 N.ar    1  UNL1       -0.2045
     23 C         139.6139  141.0575  166.3057 C.ar    1  UNL1        0.1732
     24 C         138.6514  140.4423  165.3336 C.ar    1  UNL1        0.1099
     25 C         138.0870  139.2025  165.9617 C.ar    1  UNL1        0.1283
     26 N         138.7006  139.0516  167.3220 N.ar    1  UNL1       -0.1606
     27 N         139.6443  140.1980  167.5346 N.ar    1  UNL1       -0.1936
     28 C         140.4730  140.4421  168.7609 C.ar    1  UNL1        0.1759
     29 N         139.8677  141.1247  169.9515 N.ar    1  UNL1       -0.2242
     30 C         140.6963  141.3688  171.1778 C.ar    1  UNL1        0.1006
     31 C         142.1304  140.9303  171.2135 C.ar    1  UNL1        0.0217
     32 C         142.7356  140.2476  170.0229 C.ar    1  UNL1        0.0161
     33 C         141.9070  140.0035  168.7966 C.ar    1  UNL1        0.0935
     34 CL        142.5124  139.3209  167.6060 Cl      1  UNL1       -0.0790
@<TRIPOS>BOND
     1    15    16    1
     2    16    17    1
     3    16    14    1
     4    14    13    1
     5     1    13    1
     6     1    18    1
     7    18    19    1
     8    19    20   ar
     9    20    21   ar
    10    21    22   ar
    11    22    23   ar
    12    23    24   ar
    13    24    25   ar
    14    25    26   ar
    15    26    27   ar
    16    27    28    1
    17    28    29   ar
    18    29    30   ar
    19    30    31   ar
    20    31    32   ar
    21    32    33   ar
    22    33    34    1
    23     1     2    1
    24     2     3    2
    25     2     4   am
    26     4     6    1
    27     6     7   ar
    28     7     8   ar
    29     8     9   ar
    30     9    10    1
    31     9    11   ar
    32    11    12   ar
    33    24    19   ar
    34    33    28   ar
    35    12     6   ar
    36    27    23   ar
    37     4     5    1
@<TRIPOS>MOLECULE
*****
 34 37 0 0 0
SMALL
GASTEIGER

@<TRIPOS>ATOM
      1 C         141.1373  144.9555  159.8180 C.3     1  UNL1        0.2722
      2 C         141.2673  145.5973  158.4684 C.2     1  UNL1        0.2701
      3 O         142.5614  146.2393  158.0648 O.2     1  UNL1       -0.2707
      4 N         140.1031  145.5971  157.5226 N.am    1  UNL1       -0.2663
      5 H         139.2537  145.1757  157.7875 H       1  UNL1        0.1564
      6 C         140.2330  146.2388  156.1731 C.ar    1  UNL1        0.1343
      7 C         139.4478  147.4759  155.8521 C.ar    1  UNL1        0.0354
      8 C         139.5777  148.1176  154.5026 C.ar    1  UNL1        0.0158
      9 C         140.4930  147.5223  153.4739 C.ar    1  UNL1        0.0769
     10 CL        140.6229  148.1641  152.1244 Cl      1  UNL1       -0.0806
     11 C         141.2782  146.2852  153.7949 C.ar    1  UNL1        0.1116
     12 N         141.1482  145.6435  155.1445 N.ar    1  UNL1       -0.2281
     13 C         140.1645  145.5046  160.8190 C.3     1  UNL1        0.1950
     14 O         138.9809  144.6859  161.2418 O.3     1  UNL1       -0.3519
     15 C         137.6604  143.4521  163.1084 C.3     1  UNL1        0.0320
     16 C         138.7485  144.3984  162.6956 C.3     1  UNL1        0.1156
     17 C         139.6043  145.0573  163.7365 C.3     1  UNL1        0.0320
     18 O         141.9801  143.7646  160.1664 O.3     1  UNL1       -0.4517
     19 C         142.4568  143.5695  161.5753 C.ar    1  UNL1        0.2312
     20 N         143.5250  144.4609  162.1358 N.ar    1  UNL1       -0.1892
     21 C         144.0017  144.2658  163.5446 C.ar    1  UNL1        0.2029
     22 N         143.4101  143.1793  164.3928 N.ar    1  UNL1       -0.2045
     23 C         142.3419  142.2879  163.8323 C.ar    1  UNL1        0.1732
     24 C         141.8652  142.4830  162.4235 C.ar    1  UNL1        0.1099
     25 C         140.8065  141.4572  162.1461 C.ar    1  UNL1        0.1283
     26 N         140.6289  140.6281  163.3835 N.ar    1  UNL1       -0.1606
     27 N         141.5778  141.1415  164.4256 N.ar    1  UNL1       -0.1936
     28 C         141.7350  140.6031  165.8167 C.ar    1  UNL1        0.1759
     29 N         140.8040  141.0512  166.9041 N.ar    1  UNL1       -0.2242
     30 C         140.9612  140.5128  168.2953 C.ar    1  UNL1        0.1006
     31 C         142.0495  139.5262  168.5991 C.ar    1  UNL1        0.0217
     32 C         142.9805  139.0781  167.5118 C.ar    1  UNL1        0.0161
     33 C         142.8233  139.6165  166.1206 C.ar    1  UNL1        0.0935
     34 CL        143.7544  139.1684  165.0333 Cl      1  UNL1       -0.0790
@<TRIPOS>BOND
     1    15    16    1
     2    16    17    1
     3    16    14    1
     4    14    13    1
     5     1    13    1
     6     1    18    1
     7    18    19    1
     8    19    20   ar
     9    20    21   ar
    10    21    22   ar
    11    22    23   ar
    12    23    24   ar
    13    24    25   ar
    14    25    26   ar
    15    26    27   ar
    16    27    28    1
    17    28    29   ar
    18    29    30   ar
    19    30    31   ar
    20    31    32   ar
    21    32    33   ar
    22    33    34    1
    23     1     2    1
    24     2     3    2
    25     2     4   am
    26     4     6    1
    27     6     7   ar
    28     7     8   ar
    29     8     9   ar
    30     9    10    1
    31     9    11   ar
    32    11    12   ar
    33    24    19   ar
    34    33    28   ar
    35    12     6   ar
    36    27    23   ar
    37     4     5    1
@<TRIPOS>MOLECULE
*****
 34 37 0 0 0
SMALL
GASTEIGER

@<TRIPOS>ATOM
      1 C         144.7016  140.3850  164.1181 C.3     1  UNL1        0.2722
      2 C         143.8415  140.5600  165.3345 C.2     1  UNL1        0.2701
      3 O         143.5835  141.9335  165.8795 O.2     1  UNL1       -0.2707
      4 N         143.2392  139.3614  166.0060 N.am    1  UNL1       -0.2663
      5 H         143.4085  138.4600  165.6483 H       1  UNL1        0.1564
      6 C         142.3791  139.5364  167.2223 C.ar    1  UNL1        0.1343
      7 C         140.9494  139.9653  167.0745 C.ar    1  UNL1        0.0354
      8 C         140.0892  140.1402  168.2908 C.ar    1  UNL1        0.0158
      9 C         140.6588  139.8862  169.6551 C.ar    1  UNL1        0.0769
     10 CL        139.7987  140.0611  170.8714 Cl      1  UNL1       -0.0806
     11 C         142.0886  139.4573  169.8029 C.ar    1  UNL1        0.1116
     12 N         142.9487  139.2823  168.5865 N.ar    1  UNL1       -0.2281
     13 C         145.5640  141.5155  163.6404 C.3     1  UNL1        0.1950
     14 O         145.2095  142.2487  162.3807 O.3     1  UNL1       -0.3519
     15 C         142.7175  142.5397  161.7059 C.3     1  UNL1        0.0320
     16 C         143.9681  143.0889  162.3259 C.3     1  UNL1        0.1156
     17 C         143.9773  144.4783  162.8912 C.3     1  UNL1        0.0320
     18 O         144.6994  139.0795  163.3795 O.3     1  UNL1       -0.4517
     19 C         143.4698  138.6363  162.6435 C.ar    1  UNL1        0.2312
     20 N         142.3465  137.9778  163.3881 N.ar    1  UNL1       -0.1892
     21 C         141.1170  137.5346  162.6520 C.ar    1  UNL1        0.2029
     22 N         141.0108  137.7499  161.1714 N.ar    1  UNL1       -0.2045
     23 C         142.1341  138.4085  160.4268 C.ar    1  UNL1        0.1732
     24 C         143.3636  138.8516  161.1628 C.ar    1  UNL1        0.1099
     25 C         144.3021  139.4685  160.1684 C.ar    1  UNL1        0.1283
     26 N         143.6526  139.4065  158.8178 N.ar    1  UNL1       -0.1606
     27 N         142.3127  138.7514  158.9775 N.ar    1  UNL1       -0.1936
     28 C         141.3247  138.4858  157.8804 C.ar    1  UNL1        0.1759
     29 N         140.1610  139.4105  157.6790 N.ar    1  UNL1       -0.2242
     30 C         139.1731  139.1449  156.5819 C.ar    1  UNL1        0.1006
     31 C         139.3489  137.9546  155.6863 C.ar    1  UNL1        0.0217
     32 C         140.5126  137.0299  155.8878 C.ar    1  UNL1        0.0161
     33 C         141.5005  137.2954  156.9848 C.ar    1  UNL1        0.0935
     34 CL        142.6642  136.3707  157.1862 Cl      1  UNL1       -0.0790
@<TRIPOS>BOND
     1    15    16    1
     2    16    17    1
     3    16    14    1
     4    14    13    1
     5     1    13    1
     6     1    18    1
     7    18    19    1
     8    19    20   ar
     9    20    21   ar
    10    21    22   ar
    11    22    23   ar
    12    23    24   ar
    13    24    25   ar
    14    25    26   ar
    15    26    27   ar
    16    27    28    1
    17    28    29   ar
    18    29    30   ar
    19    30    31   ar
    20    31    32   ar
    21    32    33   ar
    22    33    34    1
    23     1     2    1
    24     2     3    2
    25     2     4   am
    26     4     6    1
    27     6     7   ar
    28     7     8   ar
    29     8     9   ar
    30     9    10    1
    31     9    11   ar
    32    11    12   ar
    33    24    19   ar
    34    33    28   ar
    35    12     6   ar
    36    27    23   ar
    37     4     5    1
@<TRIPOS>MOLECULE
*****
 34 37 0 0 0
SMALL
GASTEIGER

@<TRIPOS>ATOM
      1 C         141.2182  144.5711  159.6553 C.3     1  UNL1        0.2722
      2 C         141.1706  145.4740  158.4584 C.2     1  UNL1        0.2701
      3 O         142.3998  146.2210  158.0331 O.2     1  UNL1       -0.2707
      4 N         139.8938  145.6297  157.6867 N.am    1  UNL1       -0.2663
      5 H         139.0870  145.1394  157.9659 H       1  UNL1        0.1564
      6 C         139.8461  146.5326  156.4899 C.ar    1  UNL1        0.1343
      7 C         140.6331  146.1895  155.2598 C.ar    1  UNL1        0.0354
      8 C         140.5854  147.0923  154.0629 C.ar    1  UNL1        0.0158
      9 C         139.7508  148.3383  154.0960 C.ar    1  UNL1        0.0769
     10 CL        139.7032  149.2411  152.8992 Cl      1  UNL1       -0.0806
     11 C         138.9639  148.6814  155.3261 C.ar    1  UNL1        0.1116
     12 N         139.0115  147.7785  156.5230 N.ar    1  UNL1       -0.2281
     13 C         141.1775  143.0826  159.4741 C.3     1  UNL1        0.1950
     14 O         139.8716  142.3509  159.5699 O.3     1  UNL1       -0.3519
     15 C         140.7390  140.6905  161.3701 C.3     1  UNL1        0.0320
     16 C         139.6068  141.4380  160.7304 C.3     1  UNL1        0.1156
     17 C         138.2098  141.2727  161.2511 C.3     1  UNL1        0.0320
     18 O         141.3065  145.1567  161.0334 O.3     1  UNL1       -0.4517
     19 C         140.4176  144.6407  162.1260 C.ar    1  UNL1        0.2312
     20 N         138.9401  144.8933  162.0729 N.ar    1  UNL1       -0.1892
     21 C         138.0512  144.3772  163.1654 C.ar    1  UNL1        0.2029
     22 N         138.6400  143.6086  164.3111 N.ar    1  UNL1       -0.2045
     23 C         140.1176  143.3560  164.3642 C.ar    1  UNL1        0.1732
     24 C         141.0064  143.8720  163.2717 C.ar    1  UNL1        0.1099
     25 C         142.4158  143.4708  163.5923 C.ar    1  UNL1        0.1283
     26 N         142.3980  142.7068  164.8830 N.ar    1  UNL1       -0.1606
     27 N         140.9776  142.6358  165.3601 N.ar    1  UNL1       -0.1936
     28 C         140.5009  141.9629  166.6130 C.ar    1  UNL1        0.1759
     29 N         140.7080  142.6226  167.9441 N.ar    1  UNL1       -0.2242
     30 C         140.2314  141.9497  169.1970 C.ar    1  UNL1        0.1006
     31 C         139.5475  140.6169  169.1189 C.ar    1  UNL1        0.0217
     32 C         139.3404  139.9572  167.7879 C.ar    1  UNL1        0.0161
     33 C         139.8171  140.6301  166.5349 C.ar    1  UNL1        0.0935
     34 CL        139.6099  139.9703  165.2039 Cl      1  UNL1       -0.0790
@<TRIPOS>BOND
     1    15    16    1
     2    16    17    1
     3    16    14    1
     4    14    13    1
     5     1    13    1
     6     1    18    1
     7    18    19    1
     8    19    20   ar
     9    20    21   ar
    10    21    22   ar
    11    22    23   ar
    12    23    24   ar
    13    24    25   ar
    14    25    26   ar
    15    26    27   ar
    16    27    28    1
    17    28    29   ar
    18    29    30   ar
    19    30    31   ar
    20    31    32   ar
    21    32    33   ar
    22    33    34    1
    23     1     2    1
    24     2     3    2
    25     2     4   am
    26     4     6    1
    27     6     7   ar
    28     7     8   ar
    29     8     9   ar
    30     9    10    1
    31     9    11   ar
    32    11    12   ar
    33    24    19   ar
    34    33    28   ar
    35    12     6   ar
    36    27    23   ar
    37     4     5    1
@<TRIPOS>MOLECULE
*****
 34 37 0 0 0
SMALL
GASTEIGER

@<TRIPOS>ATOM
      1 C         139.3877  138.0842  161.5222 C.3     1  UNL1        0.2722
      2 C         140.1185  138.3812  160.2463 C.2     1  UNL1        0.2701
      3 O         139.3508  138.7331  159.0067 O.2     1  UNL1       -0.2707
      4 N         141.6171  138.3262  160.2102 N.am    1  UNL1       -0.2663
      5 H         142.1210  138.0952  161.0238 H       1  UNL1        0.1564
      6 C         142.3479  138.6231  158.9344 C.ar    1  UNL1        0.1343
      7 C         142.3789  137.6048  157.8334 C.ar    1  UNL1        0.0354
      8 C         143.1098  137.9017  156.5576 C.ar    1  UNL1        0.0158
      9 C         143.8096  139.2170  156.3827 C.ar    1  UNL1        0.0769
     10 CL        144.5404  139.5139  155.1069 Cl      1  UNL1       -0.0806
     11 C         143.7785  140.2352  157.4837 C.ar    1  UNL1        0.1116
     12 N         143.0477  139.9383  158.7596 N.ar    1  UNL1       -0.2281
     13 C         137.9624  138.5209  161.6893 C.3     1  UNL1        0.1950
     14 O         137.6427  139.7457  162.4940 O.3     1  UNL1       -0.3519
     15 C         139.0882  141.7622  163.2649 C.3     1  UNL1        0.0320
     16 C         138.3292  141.0440  162.1888 C.3     1  UNL1        0.1156
     17 C         138.2567  141.6241  160.8074 C.3     1  UNL1        0.0320
     18 O         140.0822  137.3506  162.6311 O.3     1  UNL1       -0.4517
     19 C         140.8244  138.1154  163.6867 C.ar    1  UNL1        0.2312
     20 N         142.2885  138.3955  163.5201 N.ar    1  UNL1       -0.1892
     21 C         143.0307  139.1603  164.5757 C.ar    1  UNL1        0.2029
     22 N         142.3087  139.6448  165.7980 N.ar    1  UNL1       -0.2045
     23 C         140.8446  139.3647  165.9646 C.ar    1  UNL1        0.1732
     24 C         140.1024  138.6000  164.9090 C.ar    1  UNL1        0.1099
     25 C         138.6726  138.4758  165.3454 C.ar    1  UNL1        0.1283
     26 N         138.5312  139.1639  166.6707 N.ar    1  UNL1       -0.1606
     27 N         139.8735  139.7132  167.0534 N.ar    1  UNL1       -0.1936
     28 C         140.1893  140.4769  168.3052 C.ar    1  UNL1        0.1759
     29 N         140.2553  139.7632  169.6228 N.ar    1  UNL1       -0.2242
     30 C         140.5711  140.5270  170.8746 C.ar    1  UNL1        0.1006
     31 C         140.8210  142.0045  170.8087 C.ar    1  UNL1        0.0217
     32 C         140.7550  142.7183  169.4911 C.ar    1  UNL1        0.0161
     33 C         140.4391  141.9545  168.2394 C.ar    1  UNL1        0.0935
     34 CL        140.3731  142.6684  166.9218 Cl      1  UNL1       -0.0790
@<TRIPOS>BOND
     1    15    16    1
     2    16    17    1
     3    16    14    1
     4    14    13    1
     5     1    13    1
     6     1    18    1
     7    18    19    1
     8    19    20   ar
     9    20    21   ar
    10    21    22   ar
    11    22    23   ar
    12    23    24   ar
    13    24    25   ar
    14    25    26   ar
    15    26    27   ar
    16    27    28    1
    17    28    29   ar
    18    29    30   ar
    19    30    31   ar
    20    31    32   ar
    21    32    33   ar
    22    33    34    1
    23     1     2    1
    24     2     3    2
    25     2     4   am
    26     4     6    1
    27     6     7   ar
    28     7     8   ar
    29     8     9   ar
    30     9    10    1
    31     9    11   ar
    32    11    12   ar
    33    24    19   ar
    34    33    28   ar
    35    12     6   ar
    36    27    23   ar
    37     4     5    1
@<TRIPOS>MOLECULE
*****
 34 37 0 0 0
SMALL
GASTEIGER

@<TRIPOS>ATOM
      1 C         140.7758  145.0100  160.4102 C.3     1  UNL1        0.2722
      2 C         140.0546  144.5666  159.1719 C.2     1  UNL1        0.2701
      3 O         138.9757  143.5285  159.2634 O.2     1  UNL1       -0.2707
      4 N         140.4123  145.1613  157.8421 N.am    1  UNL1       -0.2663
      5 H         141.1204  145.8427  157.7821 H       1  UNL1        0.1564
      6 C         139.6911  144.7180  156.6038 C.ar    1  UNL1        0.1343
      7 C         140.0738  143.4322  155.9328 C.ar    1  UNL1        0.0354
      8 C         139.3527  142.9889  154.6945 C.ar    1  UNL1        0.0158
      9 C         138.2487  143.8314  154.1273 C.ar    1  UNL1        0.0769
     10 CL        137.5276  143.3881  152.8890 Cl      1  UNL1       -0.0806
     11 C         137.8660  145.1171  154.7983 C.ar    1  UNL1        0.1116
     12 N         138.5873  145.5605  156.0367 N.ar    1  UNL1       -0.2281
     13 C         140.1015  145.9336  161.3808 C.3     1  UNL1        0.1950
     14 O         138.7376  145.6006  161.9091 O.3     1  UNL1       -0.3519
     15 C         139.2733  144.8189  164.3282 C.3     1  UNL1        0.0320
     16 C         138.5856  144.5972  163.0137 C.3     1  UNL1        0.1156
     17 C         137.7459  143.3721  162.8038 C.3     1  UNL1        0.0320
     18 O         142.1714  144.5297  160.6778 O.3     1  UNL1       -0.4517
     19 C         142.6005  144.2158  162.0805 C.ar    1  UNL1        0.2312
     20 N         143.5582  145.1243  162.7928 N.ar    1  UNL1       -0.1892
     21 C         143.9873  144.8105  164.1954 C.ar    1  UNL1        0.2029
     22 N         143.4587  143.5881  164.8857 N.ar    1  UNL1       -0.2045
     23 C         142.5010  142.6796  164.1734 C.ar    1  UNL1        0.1732
     24 C         142.0719  142.9935  162.7708 C.ar    1  UNL1        0.1099
     25 C         141.1232  141.9204  162.3251 C.ar    1  UNL1        0.1283
     26 N         140.9660  140.9434  163.4524 N.ar    1  UNL1       -0.1606
     27 N         141.8175  141.4127  164.5947 N.ar    1  UNL1       -0.1936
     28 C         141.9604  140.7340  165.9247 C.ar    1  UNL1        0.1759
     29 N         141.1385  141.1923  167.0927 N.ar    1  UNL1       -0.2242
     30 C         141.2814  140.5137  168.4228 C.ar    1  UNL1        0.1006
     31 C         142.2463  139.3767  168.5848 C.ar    1  UNL1        0.0217
     32 C         143.0682  138.9184  167.4168 C.ar    1  UNL1        0.0161
     33 C         142.9253  139.5970  166.0867 C.ar    1  UNL1        0.0935
     34 CL        143.7473  139.1387  164.9187 Cl      1  UNL1       -0.0790
@<TRIPOS>BOND
     1    15    16    1
     2    16    17    1
     3    16    14    1
     4    14    13    1
     5     1    13    1
     6     1    18    1
     7    18    19    1
     8    19    20   ar
     9    20    21   ar
    10    21    22   ar
    11    22    23   ar
    12    23    24   ar
    13    24    25   ar
    14    25    26   ar
    15    26    27   ar
    16    27    28    1
    17    28    29   ar
    18    29    30   ar
    19    30    31   ar
    20    31    32   ar
    21    32    33   ar
    22    33    34    1
    23     1     2    1
    24     2     3    2
    25     2     4   am
    26     4     6    1
    27     6     7   ar
    28     7     8   ar
    29     8     9   ar
    30     9    10    1
    31     9    11   ar
    32    11    12   ar
    33    24    19   ar
    34    33    28   ar
    35    12     6   ar
    36    27    23   ar
    37     4     5    1
@<TRIPOS>MOLECULE
*****
 34 37 0 0 0
SMALL
GASTEIGER

@<TRIPOS>ATOM
      1 C         142.5278  139.8648  166.8280 C.3     1  UNL1        0.2722
      2 C         142.2439  141.0673  165.9774 C.2     1  UNL1        0.2701
      3 O         143.3499  142.0201  165.6327 O.2     1  UNL1       -0.2707
      4 N         140.8540  141.3170  165.4716 N.am    1  UNL1       -0.2663
      5 H         140.1281  140.6916  165.6978 H       1  UNL1        0.1564
      6 C         140.5702  142.5195  164.6211 C.ar    1  UNL1        0.1343
      7 C         139.7755  143.6625  165.1796 C.ar    1  UNL1        0.0354
      8 C         139.4916  144.8650  164.3291 C.ar    1  UNL1        0.0158
      9 C         140.0024  144.9245  162.9200 C.ar    1  UNL1        0.0769
     10 CL        139.7185  146.1269  162.0695 Cl      1  UNL1       -0.0806
     11 C         140.7971  143.7814  162.3614 C.ar    1  UNL1        0.1116
     12 N         141.0809  142.5789  163.2120 N.ar    1  UNL1       -0.2281
     13 C         142.5385  139.9890  168.3227 C.3     1  UNL1        0.1950
     14 O         142.2036  141.3007  168.9687 O.3     1  UNL1       -0.3519
     15 C         140.4433  143.2073  169.0969 C.3     1  UNL1        0.0320
     16 C         140.7742  141.7445  169.0682 C.3     1  UNL1        0.1156
     17 C         139.6757  140.7255  169.1389 C.3     1  UNL1        0.0320
     18 O         142.8010  138.5380  166.1837 O.3     1  UNL1       -0.4517
     19 C         142.2143  138.2220  164.8397 C.ar    1  UNL1        0.2312
     20 N         140.9173  137.4746  164.7446 N.ar    1  UNL1       -0.1892
     21 C         140.3307  137.1585  163.4007 C.ar    1  UNL1        0.2029
     22 N         141.0412  137.5899  162.1520 N.ar    1  UNL1       -0.2045
     23 C         142.3382  138.3373  162.2472 C.ar    1  UNL1        0.1732
     24 C         142.9247  138.6533  163.5911 C.ar    1  UNL1        0.1099
     25 C         144.2084  139.3983  163.3730 C.ar    1  UNL1        0.1283
     26 N         144.4150  139.5426  161.8944 N.ar    1  UNL1       -0.1606
     27 N         143.2592  138.8869  161.1986 N.ar    1  UNL1       -0.1936
     28 C         143.0595  138.7966  159.7147 C.ar    1  UNL1        0.1759
     29 N         142.9865  137.4549  159.0480 N.ar    1  UNL1       -0.2242
     30 C         142.7867  137.3646  157.5641 C.ar    1  UNL1        0.1006
     31 C         142.6599  138.6161  156.7469 C.ar    1  UNL1        0.0217
     32 C         142.7329  139.9577  157.4136 C.ar    1  UNL1        0.0161
     33 C         142.9326  140.0480  158.8975 C.ar    1  UNL1        0.0935
     34 CL        143.0056  141.3897  159.5641 Cl      1  UNL1       -0.0790
@<TRIPOS>BOND
     1    15    16    1
     2    16    17    1
     3    16    14    1
     4    14    13    1
     5     1    13    1
     6     1    18    1
     7    18    19    1
     8    19    20   ar
     9    20    21   ar
    10    21    22   ar
    11    22    23   ar
    12    23    24   ar
    13    24    25   ar
    14    25    26   ar
    15    26    27   ar
    16    27    28    1
    17    28    29   ar
    18    29    30   ar
    19    30    31   ar
    20    31    32   ar
    21    32    33   ar
    22    33    34    1
    23     1     2    1
    24     2     3    2
    25     2     4   am
    26     4     6    1
    27     6     7   ar
    28     7     8   ar
    29     8     9   ar
    30     9    10    1
    31     9    11   ar
    32    11    12   ar
    33    24    19   ar
    34    33    28   ar
    35    12     6   ar
    36    27    23   ar
    37     4     5    1
@<TRIPOS>MOLECULE
*****
 34 37 0 0 0
SMALL
GASTEIGER

@<TRIPOS>ATOM
      1 C         143.5013  142.1058  160.9208 C.3     1  UNL1        0.2722
      2 C         142.7066  142.6668  159.7789 C.2     1  UNL1        0.2701
      3 O         141.7513  141.7884  159.0269 O.2     1  UNL1       -0.2707
      4 N         142.8674  144.1063  159.3891 N.am    1  UNL1       -0.2663
      5 H         143.4945  144.6829  159.8827 H       1  UNL1        0.1564
      6 C         142.0728  144.6674  158.2473 C.ar    1  UNL1        0.1343
      7 C         140.8676  145.5181  158.5188 C.ar    1  UNL1        0.0354
      8 C         140.0730  146.0791  157.3770 C.ar    1  UNL1        0.0158
      9 C         140.4836  145.7895  155.9636 C.ar    1  UNL1        0.0769
     10 CL        139.6890  146.3506  154.8218 Cl      1  UNL1       -0.0806
     11 C         141.6888  144.9388  155.6921 C.ar    1  UNL1        0.1116
     12 N         142.4834  144.3777  156.8340 N.ar    1  UNL1       -0.2281
     13 C         144.5432  142.9483  161.5949 C.3     1  UNL1        0.1950
     14 O         144.1811  144.3008  162.1331 O.3     1  UNL1       -0.3519
     15 C         142.4011  145.2783  163.7537 C.3     1  UNL1        0.0320
     16 C         143.6158  144.4308  163.5165 C.3     1  UNL1        0.1156
     17 C         144.2652  143.7133  164.6625 C.3     1  UNL1        0.0320
     18 O         143.2540  140.7022  161.3885 O.3     1  UNL1       -0.4517
     19 C         143.2460  140.3910  162.8559 C.ar    1  UNL1        0.2312
     20 N         144.3270  139.5355  163.4471 N.ar    1  UNL1       -0.1892
     21 C         144.3189  139.2244  164.9144 C.ar    1  UNL1        0.2029
     22 N         143.2299  139.7688  165.7906 N.ar    1  UNL1       -0.2045
     23 C         142.1490  140.6244  165.1994 C.ar    1  UNL1        0.1732
     24 C         142.1570  140.9355  163.7321 C.ar    1  UNL1        0.1099
     25 C         140.9679  141.8004  163.4351 C.ar    1  UNL1        0.1283
     26 N         140.2250  142.0238  164.7189 N.ar    1  UNL1       -0.1606
     27 N         140.9550  141.2970  165.8093 N.ar    1  UNL1       -0.1936
     28 C         140.5602  141.2508  167.2557 C.ar    1  UNL1        0.1759
     29 N         141.1830  142.2023  168.2339 N.ar    1  UNL1       -0.2242
     30 C         140.7883  142.1561  169.6802 C.ar    1  UNL1        0.1006
     31 C         139.7706  141.1585  170.1485 C.ar    1  UNL1        0.0217
     32 C         139.1478  140.2071  169.1703 C.ar    1  UNL1        0.0161
     33 C         139.5426  140.2532  167.7240 C.ar    1  UNL1        0.0935
     34 CL        138.9197  139.3018  166.7458 Cl      1  UNL1       -0.0790
@<TRIPOS>BOND
     1    15    16    1
     2    16    17    1
     3    16    14    1
     4    14    13    1
     5     1    13    1
     6     1    18    1
     7    18    19    1
     8    19    20   ar
     9    20    21   ar
    10    21    22   ar
    11    22    23   ar
    12    23    24   ar
    13    24    25   ar
    14    25    26   ar
    15    26    27   ar
    16    27    28    1
    17    28    29   ar
    18    29    30   ar
    19    30    31   ar
    20    31    32   ar
    21    32    33   ar
    22    33    34    1
    23     1     2    1
    24     2     3    2
    25     2     4   am
    26     4     6    1
    27     6     7   ar
    28     7     8   ar
    29     8     9   ar
    30     9    10    1
    31     9    11   ar
    32    11    12   ar
    33    24    19   ar
    34    33    28   ar
    35    12     6   ar
    36    27    23   ar
    37     4     5    1
@<TRIPOS>MOLECULE
*****
 34 37 0 0 0
SMALL
GASTEIGER

@<TRIPOS>ATOM
      1 C         141.7004  138.3858  160.7608 C.3     1  UNL1        0.2722
      2 C         141.1273  139.7705  160.8272 C.2     1  UNL1        0.2701
      3 O         139.7058  140.0144  160.4152 O.2     1  UNL1       -0.2707
      4 N         141.9759  140.9111  161.3056 N.am    1  UNL1       -0.2663
      5 H         142.9089  140.7510  161.5760 H       1  UNL1        0.1564
      6 C         141.4029  142.2958  161.3719 C.ar    1  UNL1        0.1343
      7 C         141.7193  143.2908  160.2950 C.ar    1  UNL1        0.0354
      8 C         141.1463  144.6754  160.3614 C.ar    1  UNL1        0.0158
      9 C         140.2569  145.0651  161.5048 C.ar    1  UNL1        0.0769
     10 CL        139.6839  146.4497  161.5711 Cl      1  UNL1       -0.0806
     11 C         139.9405  144.0701  162.5817 C.ar    1  UNL1        0.1116
     12 N         140.5136  142.6854  162.5153 N.ar    1  UNL1       -0.2281
     13 C         142.6448  138.0171  159.6554 C.3     1  UNL1        0.1950
     14 O         143.6982  138.9893  159.2134 O.3     1  UNL1       -0.3519
     15 C         144.5063  140.8441  157.5835 C.3     1  UNL1        0.0320
     16 C         143.4601  139.8596  158.0151 C.3     1  UNL1        0.1156
     17 C         142.1759  139.7455  157.2484 C.3     1  UNL1        0.0320
     18 O         141.3289  137.3698  161.8000 O.3     1  UNL1       -0.4517
     19 C         140.9076  137.8164  163.1686 C.ar    1  UNL1        0.2312
     20 N         139.4884  137.6268  163.6155 N.ar    1  UNL1       -0.1892
     21 C         139.0671  138.0734  164.9841 C.ar    1  UNL1        0.2029
     22 N         140.0651  138.7095  165.9058 N.ar    1  UNL1       -0.2045
     23 C         141.4843  138.8990  165.4588 C.ar    1  UNL1        0.1732
     24 C         141.9056  138.4525  164.0903 C.ar    1  UNL1        0.1099
     25 C         143.3631  138.7678  163.9279 C.ar    1  UNL1        0.1283
     26 N         143.8426  139.4093  165.1962 N.ar    1  UNL1       -0.1606
     27 N         142.6814  139.4904  166.1424 N.ar    1  UNL1       -0.1936
     28 C         142.7120  140.0624  167.5287 C.ar    1  UNL1        0.1759
     29 N         142.7072  139.1480  168.7177 N.ar    1  UNL1       -0.2242
     30 C         142.7377  139.7200  170.1040 C.ar    1  UNL1        0.1006
     31 C         142.7731  141.2065  170.3013 C.ar    1  UNL1        0.0217
     32 C         142.7779  142.1210  169.1123 C.ar    1  UNL1        0.0161
     33 C         142.7473  141.5489  167.7260 C.ar    1  UNL1        0.0935
     34 CL        142.7522  142.4635  166.5371 Cl      1  UNL1       -0.0790
@<TRIPOS>BOND
     1    15    16    1
     2    16    17    1
     3    16    14    1
     4    14    13    1
     5     1    13    1
     6     1    18    1
     7    18    19    1
     8    19    20   ar
     9    20    21   ar
    10    21    22   ar
    11    22    23   ar
    12    23    24   ar
    13    24    25   ar
    14    25    26   ar
    15    26    27   ar
    16    27    28    1
    17    28    29   ar
    18    29    30   ar
    19    30    31   ar
    20    31    32   ar
    21    32    33   ar
    22    33    34    1
    23     1     2    1
    24     2     3    2
    25     2     4   am
    26     4     6    1
    27     6     7   ar
    28     7     8   ar
    29     8     9   ar
    30     9    10    1
    31     9    11   ar
    32    11    12   ar
    33    24    19   ar
    34    33    28   ar
    35    12     6   ar
    36    27    23   ar
    37     4     5    1
