@<TRIPOS>MOLECULE
*****
 38 41 0 0 0
SMALL
GASTEIGER

@<TRIPOS>ATOM
      1 C         141.9497  140.8411  167.4784 C.ar    1  UNL1        0.1432
      2 C         143.0950  141.7265  167.8710 C.ar    1  UNL1        0.0371
      3 C         143.0653  142.4540  169.1824 C.ar    1  UNL1        0.0047
      4 C         141.8902  142.2962  170.1012 C.ar    1  UNL1        0.0195
      5 C         140.7448  141.4108  169.7086 C.ar    1  UNL1        0.0887
      6 N         139.5697  141.2529  170.6273 N.ar    1  UNL1       -0.2238
      7 C         138.4243  140.3675  170.2347 C.ar    1  UNL1        0.2000
      8 N         138.4541  139.6399  168.9233 N.ar    1  UNL1       -0.2088
      9 C         139.6292  139.7978  168.0045 C.ar    1  UNL1        0.1383
     10 C         140.7746  140.6832  168.3971 C.ar    1  UNL1        0.0833
     11 N         139.6589  139.0703  166.6931 N.pl3   1  UNL1       -0.2977
     12 H         140.0676  138.1765  166.6352 H       1  UNL1        0.1536
     13 C         139.0661  139.7046  165.4699 C.ar    1  UNL1        0.0504
     14 C         138.7336  141.1673  165.4698 C.ar    1  UNL1        0.0178
     15 C         138.1408  141.8015  164.2465 C.ar    1  UNL1        0.0391
     16 C         137.8803  140.9731  163.0235 C.ar    1  UNL1        0.1496
     17 C         138.2128  139.5104  163.0236 C.ar    1  UNL1        0.0928
     18 CL        137.9523  138.6820  161.8006 Cl      1  UNL1       -0.0790
     19 C         138.8056  138.8761  164.2468 C.ar    1  UNL1        0.0291
     20 O         137.2875  141.6074  161.8003 O.3     1  UNL1       -0.4681
     21 C         138.1632  142.3728  160.8531 C.3     1  UNL1        0.2508
     22 C         139.1909  143.3265  161.3862 C.ar    1  UNL1        0.1026
     23 C         140.6351  142.9238  161.4328 C.ar    1  UNL1        0.0185
     24 C         141.6629  143.8774  161.9659 C.ar    1  UNL1        0.0029
     25 C         141.2465  145.2338  162.4524 C.ar    1  UNL1        0.0207
     26 C         139.8023  145.6366  162.4058 C.ar    1  UNL1        0.0986
     27 N         138.7745  144.6829  161.8727 N.ar    1  UNL1       -0.2445
     28 O         141.9794  140.1136  166.1669 O.3     1  UNL1       -0.4698
     29 C         143.9594  138.4314  166.1650 C.3     1  UNL1        0.0574
     30 C         143.2863  139.6461  165.5981 C.3     1  UNL1        0.2413
     31 C         143.9200  140.3933  164.4622 C.2     1  UNL1        0.2660
     32 O         144.5255  141.7452  164.6989 O.2     1  UNL1       -0.2710
     33 N         143.9484  139.7887  163.0898 N.am    1  UNL1       -0.2723
     34 C         144.5821  140.5359  161.9540 C.3     1  UNL1        0.1150
     35 C         143.3429  138.4369  162.8532 C.3     1  UNL1        0.1252
     36 C         141.9174  138.3223  162.4005 C.3     1  UNL1        0.1586
     37 O         141.2249  136.9922  162.4326 O.3     1  UNL1       -0.3802
     38 H         141.6459  136.3930  161.7965 H       1  UNL1        0.2105
@<TRIPOS>BOND
     1    30    29    1
     2    30    28    1
     3    28     1    1
     4     1     2   ar
     5     2     3   ar
     6     3     4   ar
     7     4     5   ar
     8     5     6   ar
     9     6     7   ar
    10     7     8   ar
    11     8     9   ar
    12     9    11    1
    13    11    13    1
    14    13    14   ar
    15    14    15   ar
    16    15    16   ar
    17    16    20    1
    18    20    21    1
    19    21    22    1
    20    22    23   ar
    21    23    24   ar
    22    24    25   ar
    23    25    26   ar
    24    26    27   ar
    25    16    17   ar
    26    17    18    1
    27    17    19   ar
    28     9    10   ar
    29    30    31    1
    30    31    32    2
    31    31    33   am
    32    33    34    1
    33    33    35    1
    34    35    36    1
    35    36    37    1
    36    10     1   ar
    37    10     5   ar
    38    19    13   ar
    39    27    22   ar
    40    11    12    1
    41    37    38    1
@<TRIPOS>MOLECULE
*****
 38 41 0 0 0
SMALL
GASTEIGER

@<TRIPOS>ATOM
      1 C         142.0201  140.9997  167.3085 C.ar    1  UNL1        0.1432
      2 C         143.1675  141.8600  167.7479 C.ar    1  UNL1        0.0371
      3 C         143.1666  142.4686  169.1189 C.ar    1  UNL1        0.0047
      4 C         142.0182  142.2170  170.0504 C.ar    1  UNL1        0.0195
      5 C         140.8707  141.3567  169.6110 C.ar    1  UNL1        0.0887
      6 N         139.7222  141.1049  170.5425 N.ar    1  UNL1       -0.2238
      7 C         138.5748  140.2446  170.1030 C.ar    1  UNL1        0.2000
      8 N         138.5757  139.6360  168.7321 N.ar    1  UNL1       -0.2088
      9 C         139.7241  139.8877  167.8005 C.ar    1  UNL1        0.1383
     10 C         140.8717  140.7480  168.2400 C.ar    1  UNL1        0.0833
     11 N         139.7251  139.2791  166.4296 N.pl3   1  UNL1       -0.2977
     12 H         140.1039  138.3812  166.2899 H       1  UNL1        0.1536
     13 C         139.1489  140.0385  165.2715 C.ar    1  UNL1        0.0504
     14 C         138.8898  139.3389  163.9702 C.ar    1  UNL1        0.0178
     15 C         138.3136  140.0984  162.8120 C.ar    1  UNL1        0.0391
     16 C         137.9965  141.5574  162.9552 C.ar    1  UNL1        0.1496
     17 C         138.2556  142.2571  164.2565 C.ar    1  UNL1        0.0928
     18 CL        137.9385  143.7161  164.3997 Cl      1  UNL1       -0.0790
     19 C         138.8318  141.4976  165.4146 C.ar    1  UNL1        0.0291
     20 O         137.4203  142.3168  161.7971 O.3     1  UNL1       -0.4681
     21 C         138.3039  142.7319  160.6583 C.3     1  UNL1        0.2508
     22 C         139.7449  143.0644  160.9096 C.ar    1  UNL1        0.1026
     23 C         140.8197  142.1046  160.4931 C.ar    1  UNL1        0.0185
     24 C         142.2607  142.4370  160.7444 C.ar    1  UNL1        0.0029
     25 C         142.6268  143.7292  161.4123 C.ar    1  UNL1        0.0207
     26 C         141.5519  144.6890  161.8288 C.ar    1  UNL1        0.0986
     27 N         140.1110  144.3566  161.5775 N.ar    1  UNL1       -0.2445
     28 O         142.0210  140.3911  165.9375 O.3     1  UNL1       -0.4698
     29 C         143.4756  138.4214  166.8060 C.3     1  UNL1        0.0574
     30 C         142.8046  139.1397  165.6730 C.3     1  UNL1        0.2413
     31 C         142.9171  138.6066  164.2754 C.2     1  UNL1        0.2660
     32 O         141.9196  137.6059  163.7718 O.2     1  UNL1       -0.2710
     33 N         144.0272  139.0741  163.3815 N.am    1  UNL1       -0.2723
     34 C         144.1397  138.5410  161.9839 C.3     1  UNL1        0.1150
     35 C         145.0247  140.0748  163.8850 C.3     1  UNL1        0.1252
     36 C         144.9550  141.5006  163.4240 C.3     1  UNL1        0.1586
     37 O         145.9096  141.9986  162.3796 O.3     1  UNL1       -0.3802
     38 H         146.8122  141.9867  162.7346 H       1  UNL1        0.2105
@<TRIPOS>BOND
     1    30    29    1
     2    30    28    1
     3    28     1    1
     4     1     2   ar
     5     2     3   ar
     6     3     4   ar
     7     4     5   ar
     8     5     6   ar
     9     6     7   ar
    10     7     8   ar
    11     8     9   ar
    12     9    11    1
    13    11    13    1
    14    13    14   ar
    15    14    15   ar
    16    15    16   ar
    17    16    20    1
    18    20    21    1
    19    21    22    1
    20    22    23   ar
    21    23    24   ar
    22    24    25   ar
    23    25    26   ar
    24    26    27   ar
    25    16    17   ar
    26    17    18    1
    27    17    19   ar
    28     9    10   ar
    29    30    31    1
    30    31    32    2
    31    31    33   am
    32    33    34    1
    33    33    35    1
    34    35    36    1
    35    36    37    1
    36    10     1   ar
    37    10     5   ar
    38    19    13   ar
    39    27    22   ar
    40    11    12    1
    41    37    38    1
@<TRIPOS>MOLECULE
*****
 38 41 0 0 0
SMALL
GASTEIGER

@<TRIPOS>ATOM
      1 C         141.2785  142.5504  160.6727 C.ar    1  UNL1        0.1432
      2 C         141.8842  143.4266  159.6166 C.ar    1  UNL1        0.0371
      3 C         141.4169  144.8432  159.4587 C.ar    1  UNL1        0.0047
      4 C         140.3440  145.3836  160.3568 C.ar    1  UNL1        0.0195
      5 C         139.7383  144.5074  161.4129 C.ar    1  UNL1        0.0887
      6 N         138.6653  145.0477  162.3112 N.ar    1  UNL1       -0.2238
      7 C         138.0597  144.1715  163.3673 C.ar    1  UNL1        0.2000
      8 N         138.5269  142.7549  163.5252 N.ar    1  UNL1       -0.2088
      9 C         139.5999  142.2146  162.6270 C.ar    1  UNL1        0.1383
     10 C         140.2056  143.0908  161.5709 C.ar    1  UNL1        0.0833
     11 N         140.0671  140.7980  162.7850 N.pl3   1  UNL1       -0.2977
     12 H         139.8461  140.1274  162.0989 H       1  UNL1        0.1536
     13 C         140.8711  140.4031  163.9882 C.ar    1  UNL1        0.0504
     14 C         140.8925  138.9728  164.4395 C.ar    1  UNL1        0.0178
     15 C         141.6965  138.5780  165.6428 C.ar    1  UNL1        0.0391
     16 C         142.4791  139.6135  166.3946 C.ar    1  UNL1        0.1496
     17 C         142.4577  141.0438  165.9432 C.ar    1  UNL1        0.0928
     18 CL        143.2403  142.0793  166.6951 Cl      1  UNL1       -0.0790
     19 C         141.6537  141.4387  164.7401 C.ar    1  UNL1        0.0291
     20 O         143.2831  139.2187  167.5978 O.3     1  UNL1       -0.4681
     21 C         142.6179  139.0944  168.9365 C.3     1  UNL1        0.2508
     22 C         141.7225  140.1903  169.4337 C.ar    1  UNL1        0.1026
     23 C         140.2326  140.0365  169.3524 C.ar    1  UNL1        0.0185
     24 C         139.3372  141.1324  169.8495 C.ar    1  UNL1        0.0029
     25 C         139.9316  142.3821  170.4280 C.ar    1  UNL1        0.0207
     26 C         141.4215  142.5360  170.5094 C.ar    1  UNL1        0.0986
     27 N         142.3169  141.4401  170.0122 N.ar    1  UNL1       -0.2445
     28 O         141.7458  141.1338  160.8306 O.3     1  UNL1       -0.4698
     29 C         143.8347  140.7170  159.3431 C.3     1  UNL1        0.0574
     30 C         143.2038  140.8061  160.7010 C.3     1  UNL1        0.2413
     31 C         144.0310  140.5675  161.9294 C.2     1  UNL1        0.2660
     32 O         144.1713  139.1798  162.4813 O.2     1  UNL1       -0.2710
     33 N         144.7178  141.7166  162.6060 N.am    1  UNL1       -0.2723
     34 C         145.5450  141.4781  163.8344 C.3     1  UNL1        0.1150
     35 C         144.5776  143.1044  162.0541 C.3     1  UNL1        0.1252
     36 C         143.7269  144.1129  162.7679 C.3     1  UNL1        0.1586
     37 O         144.0958  145.5663  162.7300 O.3     1  UNL1       -0.3802
     38 H         144.9340  145.6995  163.1997 H       1  UNL1        0.2105
@<TRIPOS>BOND
     1    30    29    1
     2    30    28    1
     3    28     1    1
     4     1     2   ar
     5     2     3   ar
     6     3     4   ar
     7     4     5   ar
     8     5     6   ar
     9     6     7   ar
    10     7     8   ar
    11     8     9   ar
    12     9    11    1
    13    11    13    1
    14    13    14   ar
    15    14    15   ar
    16    15    16   ar
    17    16    20    1
    18    20    21    1
    19    21    22    1
    20    22    23   ar
    21    23    24   ar
    22    24    25   ar
    23    25    26   ar
    24    26    27   ar
    25    16    17   ar
    26    17    18    1
    27    17    19   ar
    28     9    10   ar
    29    30    31    1
    30    31    32    2
    31    31    33   am
    32    33    34    1
    33    33    35    1
    34    35    36    1
    35    36    37    1
    36    10     1   ar
    37    10     5   ar
    38    19    13   ar
    39    27    22   ar
    40    11    12    1
    41    37    38    1
@<TRIPOS>MOLECULE
*****
 38 41 0 0 0
SMALL
GASTEIGER

@<TRIPOS>ATOM
      1 C         140.3732  140.4955  167.6027 C.ar    1  UNL1        0.1432
      2 C         139.2027  139.8681  168.2999 C.ar    1  UNL1        0.0371
      3 C         139.0558  140.0014  169.7868 C.ar    1  UNL1        0.0047
      4 C         140.0793  140.7621  170.5763 C.ar    1  UNL1        0.0195
      5 C         141.2499  141.3895  169.8791 C.ar    1  UNL1        0.0887
      6 N         142.2735  142.1503  170.6687 N.ar    1  UNL1       -0.2238
      7 C         143.4441  142.7777  169.9715 C.ar    1  UNL1        0.2000
      8 N         143.5910  142.6444  168.4847 N.ar    1  UNL1       -0.2088
      9 C         142.5674  141.8837  167.6951 C.ar    1  UNL1        0.1383
     10 C         141.3968  141.2562  168.3923 C.ar    1  UNL1        0.0833
     11 N         142.7143  141.7504  166.2083 N.pl3   1  UNL1       -0.2977
     12 H         143.1377  140.9483  165.8254 H       1  UNL1        0.1536
     13 C         142.2162  142.8392  165.3048 C.ar    1  UNL1        0.0504
     14 C         143.1358  143.4511  164.2900 C.ar    1  UNL1        0.0178
     15 C         142.6376  144.5400  163.3865 C.ar    1  UNL1        0.0391
     16 C         141.2198  145.0168  163.4978 C.ar    1  UNL1        0.1496
     17 C         140.3002  144.4048  164.5125 C.ar    1  UNL1        0.0928
     18 CL        138.8823  144.8816  164.6238 Cl      1  UNL1       -0.0790
     19 C         140.7983  143.3160  165.4160 C.ar    1  UNL1        0.0291
     20 O         140.7217  146.1056  162.5943 O.3     1  UNL1       -0.4681
     21 C         140.1889  145.7661  161.2338 C.3     1  UNL1        0.2508
     22 C         139.9112  144.3370  160.8721 C.ar    1  UNL1        0.1026
     23 C         140.9335  143.5430  160.1142 C.ar    1  UNL1        0.0185
     24 C         140.6558  142.1140  159.7526 C.ar    1  UNL1        0.0029
     25 C         139.3560  141.4790  160.1489 C.ar    1  UNL1        0.0207
     26 C         138.3337  142.2731  160.9069 C.ar    1  UNL1        0.0986
     27 N         138.6114  143.7021  161.2685 N.ar    1  UNL1       -0.2445
     28 O         140.5201  140.3622  166.1159 O.3     1  UNL1       -0.4698
     29 C         142.0818  138.3352  165.6659 C.3     1  UNL1        0.0574
     30 C         140.7537  139.0131  165.5033 C.3     1  UNL1        0.2413
     31 C         139.6590  138.3418  164.7279 C.2     1  UNL1        0.2660
     32 O         138.6217  137.5294  165.4449 O.2     1  UNL1       -0.2710
     33 N         139.6016  138.4829  163.2357 N.am    1  UNL1       -0.2723
     34 C         138.5069  137.8116  162.4604 C.3     1  UNL1        0.1150
     35 C         140.6389  139.2953  162.5188 C.3     1  UNL1        0.1252
     36 C         141.8412  138.6219  161.9261 C.3     1  UNL1        0.1586
     37 O         141.9336  137.1248  161.9164 O.3     1  UNL1       -0.3802
     38 H         141.9978  136.7989  162.8277 H       1  UNL1        0.2105
@<TRIPOS>BOND
     1    30    29    1
     2    30    28    1
     3    28     1    1
     4     1     2   ar
     5     2     3   ar
     6     3     4   ar
     7     4     5   ar
     8     5     6   ar
     9     6     7   ar
    10     7     8   ar
    11     8     9   ar
    12     9    11    1
    13    11    13    1
    14    13    14   ar
    15    14    15   ar
    16    15    16   ar
    17    16    20    1
    18    20    21    1
    19    21    22    1
    20    22    23   ar
    21    23    24   ar
    22    24    25   ar
    23    25    26   ar
    24    26    27   ar
    25    16    17   ar
    26    17    18    1
    27    17    19   ar
    28     9    10   ar
    29    30    31    1
    30    31    32    2
    31    31    33   am
    32    33    34    1
    33    33    35    1
    34    35    36    1
    35    36    37    1
    36    10     1   ar
    37    10     5   ar
    38    19    13   ar
    39    27    22   ar
    40    11    12    1
    41    37    38    1
@<TRIPOS>MOLECULE
*****
 38 41 0 0 0
SMALL
GASTEIGER

@<TRIPOS>ATOM
      1 C         140.5552  143.3062  163.5598 C.ar    1  UNL1        0.1432
      2 C         140.0828  144.7292  163.5186 C.ar    1  UNL1        0.0371
      3 C         138.6611  145.0372  163.1525 C.ar    1  UNL1        0.0047
      4 C         137.7119  143.9222  162.8276 C.ar    1  UNL1        0.0195
      5 C         138.1844  142.4991  162.8687 C.ar    1  UNL1        0.0887
      6 N         137.2351  141.3840  162.5438 N.ar    1  UNL1       -0.2238
      7 C         137.7076  139.9610  162.5849 C.ar    1  UNL1        0.2000
      8 N         139.1292  139.6530  162.9510 N.ar    1  UNL1       -0.2088
      9 C         140.0784  140.7680  163.2759 C.ar    1  UNL1        0.1383
     10 C         139.6060  142.1911  163.2348 C.ar    1  UNL1        0.0833
     11 N         141.5001  140.4600  163.6420 N.pl3   1  UNL1       -0.2977
     12 H         142.2119  140.5462  162.9673 H       1  UNL1        0.1536
     13 C         141.8373  140.0208  165.0360 C.ar    1  UNL1        0.0504
     14 C         141.0642  140.5638  166.2011 C.ar    1  UNL1        0.0178
     15 C         141.4015  140.1245  167.5952 C.ar    1  UNL1        0.0391
     16 C         142.5118  139.1422  167.8241 C.ar    1  UNL1        0.1496
     17 C         143.2848  138.5992  166.6590 C.ar    1  UNL1        0.0928
     18 CL        144.3951  137.6170  166.8879 Cl      1  UNL1       -0.0790
     19 C         142.9476  139.0385  165.2650 C.ar    1  UNL1        0.0291
     20 O         142.8490  138.7030  169.2181 O.3     1  UNL1       -0.4681
     21 C         142.8655  139.7028  170.3362 C.3     1  UNL1        0.2508
     22 C         141.9454  140.8869  170.2972 C.ar    1  UNL1        0.1026
     23 C         140.4772  140.7042  170.5440 C.ar    1  UNL1        0.0185
     24 C         139.5570  141.8881  170.5050 C.ar    1  UNL1        0.0029
     25 C         140.1051  143.2548  170.2191 C.ar    1  UNL1        0.0207
     26 C         141.5734  143.4375  169.9723 C.ar    1  UNL1        0.0986
     27 N         142.4935  142.2536  170.0113 N.ar    1  UNL1       -0.2445
     28 O         141.9769  142.9982  163.9258 O.3     1  UNL1       -0.4698
     29 C         143.9366  144.6870  164.1648 C.3     1  UNL1        0.0574
     30 C         143.0968  143.7840  163.3109 C.3     1  UNL1        0.2413
     31 C         143.3770  143.6668  161.8419 C.2     1  UNL1        0.2660
     32 O         142.5710  144.4630  160.8588 O.2     1  UNL1       -0.2710
     33 N         144.4631  142.7534  161.3561 N.am    1  UNL1       -0.2723
     34 C         144.7432  142.6362  159.8871 C.3     1  UNL1        0.1150
     35 C         145.2690  141.9572  162.3391 C.3     1  UNL1        0.1252
     36 C         144.7958  140.6017  162.7736 C.3     1  UNL1        0.1586
     37 O         144.6893  139.4885  161.7739 O.3     1  UNL1       -0.3802
     38 H         143.9999  139.7010  161.1255 H       1  UNL1        0.2105
@<TRIPOS>BOND
     1    30    29    1
     2    30    28    1
     3    28     1    1
     4     1     2   ar
     5     2     3   ar
     6     3     4   ar
     7     4     5   ar
     8     5     6   ar
     9     6     7   ar
    10     7     8   ar
    11     8     9   ar
    12     9    11    1
    13    11    13    1
    14    13    14   ar
    15    14    15   ar
    16    15    16   ar
    17    16    20    1
    18    20    21    1
    19    21    22    1
    20    22    23   ar
    21    23    24   ar
    22    24    25   ar
    23    25    26   ar
    24    26    27   ar
    25    16    17   ar
    26    17    18    1
    27    17    19   ar
    28     9    10   ar
    29    30    31    1
    30    31    32    2
    31    31    33   am
    32    33    34    1
    33    33    35    1
    34    35    36    1
    35    36    37    1
    36    10     1   ar
    37    10     5   ar
    38    19    13   ar
    39    27    22   ar
    40    11    12    1
    41    37    38    1
@<TRIPOS>MOLECULE
*****
 38 41 0 0 0
SMALL
GASTEIGER

@<TRIPOS>ATOM
      1 C         141.1857  143.4149  159.1943 C.ar    1  UNL1        0.1432
      2 C         139.9299  143.4993  158.3784 C.ar    1  UNL1        0.0371
      3 C         139.9710  143.2126  156.9067 C.ar    1  UNL1        0.0047
      4 C         141.2679  142.8415  156.2508 C.ar    1  UNL1        0.0195
      5 C         142.5237  142.7571  157.0667 C.ar    1  UNL1        0.0887
      6 N         143.8208  142.3860  156.4108 N.ar    1  UNL1       -0.2238
      7 C         145.0766  142.3016  157.2268 C.ar    1  UNL1        0.2000
      8 N         145.0355  142.5883  158.6985 N.ar    1  UNL1       -0.2088
      9 C         143.7385  142.9594  159.3544 C.ar    1  UNL1        0.1383
     10 C         142.4826  143.0438  158.5385 C.ar    1  UNL1        0.0833
     11 N         143.6974  143.2461  160.8262 N.pl3   1  UNL1       -0.2977
     12 H         143.4502  144.1438  161.1461 H       1  UNL1        0.1536
     13 C         144.0329  142.1652  161.8105 C.ar    1  UNL1        0.0504
     14 C         144.6112  142.5218  163.1478 C.ar    1  UNL1        0.0178
     15 C         144.9467  141.4407  164.1322 C.ar    1  UNL1        0.0391
     16 C         144.7039  140.0032  163.7792 C.ar    1  UNL1        0.1496
     17 C         144.1256  139.6467  162.4419 C.ar    1  UNL1        0.0928
     18 CL        143.8828  138.2092  162.0889 Cl      1  UNL1       -0.0790
     19 C         143.7901  140.7276  161.4575 C.ar    1  UNL1        0.0291
     20 O         145.0394  138.9223  164.7635 O.3     1  UNL1       -0.4681
     21 C         144.0523  138.5444  165.8279 C.3     1  UNL1        0.2508
     22 C         142.5815  138.6925  165.5733 C.ar    1  UNL1        0.1026
     23 C         141.8587  139.9197  166.0441 C.ar    1  UNL1        0.0185
     24 C         140.3880  140.0679  165.7896 C.ar    1  UNL1        0.0029
     25 C         139.6399  138.9889  165.0643 C.ar    1  UNL1        0.0207
     26 C         140.3626  137.7617  164.5935 C.ar    1  UNL1        0.0986
     27 N         141.8334  137.6135  164.8480 N.ar    1  UNL1       -0.2445
     28 O         141.1446  143.7016  160.6661 O.3     1  UNL1       -0.4698
     29 C         140.3080  141.3998  161.5331 C.3     1  UNL1        0.0574
     30 C         140.2490  142.8984  161.5620 C.3     1  UNL1        0.2413
     31 C         139.2942  143.5937  162.4867 C.2     1  UNL1        0.2660
     32 O         137.8413  143.6941  162.1277 O.2     1  UNL1       -0.2710
     33 N         139.7924  144.1885  163.7704 N.am    1  UNL1       -0.2723
     34 C         138.8377  144.8838  164.6952 C.3     1  UNL1        0.1150
     35 C         141.2454  144.0881  164.1294 C.3     1  UNL1        0.1252
     36 C         142.1745  145.2247  163.8208 C.3     1  UNL1        0.1586
     37 O         142.7319  145.3832  162.4373 O.3     1  UNL1       -0.3802
     38 H         143.3172  144.6361  162.2369 H       1  UNL1        0.2105
@<TRIPOS>BOND
     1    30    29    1
     2    30    28    1
     3    28     1    1
     4     1     2   ar
     5     2     3   ar
     6     3     4   ar
     7     4     5   ar
     8     5     6   ar
     9     6     7   ar
    10     7     8   ar
    11     8     9   ar
    12     9    11    1
    13    11    13    1
    14    13    14   ar
    15    14    15   ar
    16    15    16   ar
    17    16    20    1
    18    20    21    1
    19    21    22    1
    20    22    23   ar
    21    23    24   ar
    22    24    25   ar
    23    25    26   ar
    24    26    27   ar
    25    16    17   ar
    26    17    18    1
    27    17    19   ar
    28     9    10   ar
    29    30    31    1
    30    31    32    2
    31    31    33   am
    32    33    34    1
    33    33    35    1
    34    35    36    1
    35    36    37    1
    36    10     1   ar
    37    10     5   ar
    38    19    13   ar
    39    27    22   ar
    40    11    12    1
    41    37    38    1
@<TRIPOS>MOLECULE
*****
 38 41 0 0 0
SMALL
GASTEIGER

@<TRIPOS>ATOM
      1 C         138.9448  140.5227  163.8136 C.ar    1  UNL1        0.1432
      2 C         138.2307  140.1256  165.0715 C.ar    1  UNL1        0.0371
      3 C         138.4583  138.7675  165.6663 C.ar    1  UNL1        0.0047
      4 C         139.3999  137.8065  165.0032 C.ar    1  UNL1        0.0195
      5 C         140.1140  138.2036  163.7453 C.ar    1  UNL1        0.0887
      6 N         141.0557  137.2425  163.0822 N.ar    1  UNL1       -0.2238
      7 C         141.7697  137.6396  161.8242 C.ar    1  UNL1        0.2000
      8 N         141.5422  138.9977  161.2294 N.ar    1  UNL1       -0.2088
      9 C         140.6005  139.9587  161.8925 C.ar    1  UNL1        0.1383
     10 C         139.8864  139.5617  163.1505 C.ar    1  UNL1        0.0833
     11 N         140.3729  141.3168  161.2976 N.pl3   1  UNL1       -0.2977
     12 H         140.7579  142.1138  161.7287 H       1  UNL1        0.1536
     13 C         139.5588  141.4605  160.0461 C.ar    1  UNL1        0.0504
     14 C         138.5269  140.4284  159.6999 C.ar    1  UNL1        0.0178
     15 C         137.7128  140.5722  158.4482 C.ar    1  UNL1        0.0391
     16 C         137.9306  141.7481  157.5428 C.ar    1  UNL1        0.1496
     17 C         138.9624  142.7803  157.8890 C.ar    1  UNL1        0.0928
     18 CL        139.1802  143.9562  156.9837 Cl      1  UNL1       -0.0790
     19 C         139.7766  142.6365  159.1406 C.ar    1  UNL1        0.0291
     20 O         137.1165  141.8919  156.2912 O.3     1  UNL1       -0.4681
     21 C         136.3530  140.7177  155.7541 C.3     1  UNL1        0.2508
     22 C         134.8939  140.5651  156.0671 C.ar    1  UNL1        0.1026
     23 C         133.8698  141.2780  155.2347 C.ar    1  UNL1        0.0185
     24 C         132.4108  141.1255  155.5476 C.ar    1  UNL1        0.0029
     25 C         131.9759  140.2601  156.6930 C.ar    1  UNL1        0.0207
     26 C         133.0000  139.5472  157.5254 C.ar    1  UNL1        0.0986
     27 N         134.4590  139.6997  157.2125 N.ar    1  UNL1       -0.2445
     28 O         138.7172  141.8807  163.2187 O.3     1  UNL1       -0.4698
     29 C         137.9296  143.9358  164.5994 C.3     1  UNL1        0.0574
     30 C         139.0377  143.1113  164.0143 C.3     1  UNL1        0.2413
     31 C         140.4663  143.5174  164.2248 C.2     1  UNL1        0.2660
     32 O         141.2175  143.0226  165.4252 O.2     1  UNL1       -0.2710
     33 N         141.1436  144.4181  163.2350 N.am    1  UNL1       -0.2723
     34 C         142.5722  144.8242  163.4456 C.3     1  UNL1        0.1150
     35 C         140.3924  144.9129  162.0347 C.3     1  UNL1        0.1252
     36 C         139.6856  146.2350  162.0848 C.3     1  UNL1        0.1586
     37 O         139.0269  146.7805  160.8524 O.3     1  UNL1       -0.3802
     38 H         139.7031  146.9830  160.1871 H       1  UNL1        0.2105
@<TRIPOS>BOND
     1    30    29    1
     2    30    28    1
     3    28     1    1
     4     1     2   ar
     5     2     3   ar
     6     3     4   ar
     7     4     5   ar
     8     5     6   ar
     9     6     7   ar
    10     7     8   ar
    11     8     9   ar
    12     9    11    1
    13    11    13    1
    14    13    14   ar
    15    14    15   ar
    16    15    16   ar
    17    16    20    1
    18    20    21    1
    19    21    22    1
    20    22    23   ar
    21    23    24   ar
    22    24    25   ar
    23    25    26   ar
    24    26    27   ar
    25    16    17   ar
    26    17    18    1
    27    17    19   ar
    28     9    10   ar
    29    30    31    1
    30    31    32    2
    31    31    33   am
    32    33    34    1
    33    33    35    1
    34    35    36    1
    35    36    37    1
    36    10     1   ar
    37    10     5   ar
    38    19    13   ar
    39    27    22   ar
    40    11    12    1
    41    37    38    1
@<TRIPOS>MOLECULE
*****
 38 41 0 0 0
SMALL
GASTEIGER

@<TRIPOS>ATOM
      1 C         142.7089  141.2267  159.1054 C.ar    1  UNL1        0.1432
      2 C         142.4164  142.3801  158.1922 C.ar    1  UNL1        0.0371
      3 C         142.1279  142.1334  156.7411 C.ar    1  UNL1        0.0047
      4 C         142.1320  140.7333  156.2030 C.ar    1  UNL1        0.0195
      5 C         142.4245  139.5798  157.1162 C.ar    1  UNL1        0.0887
      6 N         142.4286  138.1796  156.5782 N.ar    1  UNL1       -0.2238
      7 C         142.7211  137.0261  157.4914 C.ar    1  UNL1        0.2000
      8 N         143.0095  137.2728  158.9426 N.ar    1  UNL1       -0.2088
      9 C         143.0055  138.6729  159.4806 C.ar    1  UNL1        0.1383
     10 C         142.7129  139.8265  158.5674 C.ar    1  UNL1        0.0833
     11 N         143.2939  138.9196  160.9318 N.pl3   1  UNL1       -0.2977
     12 H         144.1444  139.3363  161.2007 H       1  UNL1        0.1536
     13 C         142.2866  138.5315  161.9732 C.ar    1  UNL1        0.0504
     14 C         142.7196  138.3215  163.3939 C.ar    1  UNL1        0.0178
     15 C         141.7122  137.9333  164.4354 C.ar    1  UNL1        0.0391
     16 C         140.2720  137.7551  164.0561 C.ar    1  UNL1        0.1496
     17 C         139.8390  137.9651  162.6354 C.ar    1  UNL1        0.0928
     18 CL        138.3988  137.7869  162.2561 Cl      1  UNL1       -0.0790
     19 C         140.8463  138.3533  161.5939 C.ar    1  UNL1        0.0291
     20 O         139.2647  137.3670  165.0975 O.3     1  UNL1       -0.4681
     21 C         138.4198  138.4191  165.7527 C.3     1  UNL1        0.2508
     22 C         138.8593  139.8532  165.7336 C.ar    1  UNL1        0.1026
     23 C         138.2187  140.8213  164.7836 C.ar    1  UNL1        0.0185
     24 C         138.6581  142.2553  164.7645 C.ar    1  UNL1        0.0029
     25 C         139.7381  142.7212  165.6953 C.ar    1  UNL1        0.0207
     26 C         140.3786  141.7532  166.6453 C.ar    1  UNL1        0.0986
     27 N         139.9392  140.3191  166.6644 N.ar    1  UNL1       -0.2445
     28 O         142.9973  141.4733  160.5566 O.3     1  UNL1       -0.4698
     29 C         140.6973  141.8262  161.7122 C.3     1  UNL1        0.0574
     30 C         142.0701  142.3256  161.3713 C.3     1  UNL1        0.2413
     31 C         142.5155  143.6774  161.8451 C.2     1  UNL1        0.2660
     32 O         142.0924  144.9096  161.1017 O.2     1  UNL1       -0.2710
     33 N         143.3840  143.7968  163.0622 N.am    1  UNL1       -0.2723
     34 C         143.8294  145.1486  163.5360 C.3     1  UNL1        0.1150
     35 C         143.8071  142.5646  163.8055 C.3     1  UNL1        0.1252
     36 C         145.1194  141.9109  163.4883 C.3     1  UNL1        0.1586
     37 O         145.7053  142.0334  162.1129 O.3     1  UNL1       -0.3802
     38 H         145.1363  141.5724  161.4769 H       1  UNL1        0.2105
@<TRIPOS>BOND
     1    30    29    1
     2    30    28    1
     3    28     1    1
     4     1     2   ar
     5     2     3   ar
     6     3     4   ar
     7     4     5   ar
     8     5     6   ar
     9     6     7   ar
    10     7     8   ar
    11     8     9   ar
    12     9    11    1
    13    11    13    1
    14    13    14   ar
    15    14    15   ar
    16    15    16   ar
    17    16    20    1
    18    20    21    1
    19    21    22    1
    20    22    23   ar
    21    23    24   ar
    22    24    25   ar
    23    25    26   ar
    24    26    27   ar
    25    16    17   ar
    26    17    18    1
    27    17    19   ar
    28     9    10   ar
    29    30    31    1
    30    31    32    2
    31    31    33   am
    32    33    34    1
    33    33    35    1
    34    35    36    1
    35    36    37    1
    36    10     1   ar
    37    10     5   ar
    38    19    13   ar
    39    27    22   ar
    40    11    12    1
    41    37    38    1
@<TRIPOS>MOLECULE
*****
 38 41 0 0 0
SMALL
GASTEIGER

@<TRIPOS>ATOM
      1 C         139.7329  139.5688  159.7876 C.ar    1  UNL1        0.1432
      2 C         138.5156  140.2552  159.2427 C.ar    1  UNL1        0.0371
      3 C         138.3219  140.3739  157.7600 C.ar    1  UNL1        0.0047
      4 C         139.3456  139.8061  156.8222 C.ar    1  UNL1        0.0195
      5 C         140.5629  139.1197  157.3670 C.ar    1  UNL1        0.0887
      6 N         141.5867  138.5518  156.4291 N.ar    1  UNL1       -0.2238
      7 C         142.8040  137.8654  156.9740 C.ar    1  UNL1        0.2000
      8 N         142.9976  137.7467  158.4567 N.ar    1  UNL1       -0.2088
      9 C         141.9739  138.3145  159.3945 C.ar    1  UNL1        0.1383
     10 C         140.7565  139.0010  158.8497 C.ar    1  UNL1        0.0833
     11 N         142.1675  138.1958  160.8773 N.pl3   1  UNL1       -0.2977
     12 H         141.7065  137.4849  161.3786 H       1  UNL1        0.1536
     13 C         143.0636  139.1603  161.5962 C.ar    1  UNL1        0.0504
     14 C         143.5980  138.8173  162.9551 C.ar    1  UNL1        0.0178
     15 C         144.4941  139.7818  163.6741 C.ar    1  UNL1        0.0391
     16 C         144.8557  141.0893  163.0340 C.ar    1  UNL1        0.1496
     17 C         144.3213  141.4323  161.6751 C.ar    1  UNL1        0.0928
     18 CL        144.6829  142.7398  161.0351 Cl      1  UNL1       -0.0790
     19 C         143.4252  140.4678  160.9562 C.ar    1  UNL1        0.0291
     20 O         145.7517  142.0537  163.7530 O.3     1  UNL1       -0.4681
     21 C         145.1743  143.0117  164.7524 C.3     1  UNL1        0.2508
     22 C         143.7735  143.5204  164.5811 C.ar    1  UNL1        0.1026
     23 C         143.5225  144.7797  163.8057 C.ar    1  UNL1        0.0185
     24 C         142.1219  145.2884  163.6344 C.ar    1  UNL1        0.0029
     25 C         140.9723  144.5379  164.2385 C.ar    1  UNL1        0.0207
     26 C         141.2233  143.2786  165.0139 C.ar    1  UNL1        0.0986
     27 N         142.6239  142.7698  165.1852 N.ar    1  UNL1       -0.2445
     28 O         139.9265  139.4501  161.2703 O.3     1  UNL1       -0.4698
     29 C         137.7848  138.0522  161.7275 C.3     1  UNL1        0.0574
     30 C         138.7639  139.1058  162.1533 C.3     1  UNL1        0.2413
     31 C         138.5802  139.8152  163.4622 C.2     1  UNL1        0.2660
     32 O         138.1260  141.2446  163.4833 O.2     1  UNL1       -0.2710
     33 N         138.8509  139.0952  164.7499 N.am    1  UNL1       -0.2723
     34 C         138.6673  139.8045  166.0588 C.3     1  UNL1        0.1150
     35 C         139.3052  137.6658  164.7288 C.3     1  UNL1        0.1252
     36 C         140.7461  137.3405  164.4678 C.3     1  UNL1        0.1586
     37 O         141.1320  136.5834  163.2318 O.3     1  UNL1       -0.3802
     38 H         140.7683  135.6853  163.2760 H       1  UNL1        0.2105
@<TRIPOS>BOND
     1    30    29    1
     2    30    28    1
     3    28     1    1
     4     1     2   ar
     5     2     3   ar
     6     3     4   ar
     7     4     5   ar
     8     5     6   ar
     9     6     7   ar
    10     7     8   ar
    11     8     9   ar
    12     9    11    1
    13    11    13    1
    14    13    14   ar
    15    14    15   ar
    16    15    16   ar
    17    16    20    1
    18    20    21    1
    19    21    22    1
    20    22    23   ar
    21    23    24   ar
    22    24    25   ar
    23    25    26   ar
    24    26    27   ar
    25    16    17   ar
    26    17    18    1
    27    17    19   ar
    28     9    10   ar
    29    30    31    1
    30    31    32    2
    31    31    33   am
    32    33    34    1
    33    33    35    1
    34    35    36    1
    35    36    37    1
    36    10     1   ar
    37    10     5   ar
    38    19    13   ar
    39    27    22   ar
    40    11    12    1
    41    37    38    1
