@<TRIPOS>MOLECULE
*****
 31 35 0 0 0
SMALL
GASTEIGER

@<TRIPOS>ATOM
      1 C         141.6443  138.5625  159.8280 C.ar    1  UNL1        0.0855
      2 C         140.1680  138.5338  159.5643 C.ar    1  UNL1        0.0193
      3 C         139.2106  138.2672  160.6878 C.ar    1  UNL1        0.0030
      4 C         139.7295  138.0293  162.0749 C.ar    1  UNL1        0.0174
      5 C         138.7720  137.7627  163.1984 C.ar    1  UNL1       -0.0027
      6 C         139.2909  137.5248  164.5856 C.ar    1  UNL1       -0.0207
      7 C         140.7673  137.5535  164.8492 C.ar    1  UNL1       -0.0027
      8 C         141.7247  137.8201  163.7257 C.ar    1  UNL1        0.0188
      9 C         141.2058  138.0580  162.3386 C.ar    1  UNL1        0.0812
     10 N         142.1632  138.3246  161.2151 N.ar    1  UNL1       -0.2452
     11 C         142.0461  136.7121  157.1701 C.3     1  UNL1        0.0754
     12 C         142.7865  137.9786  157.4829 C.ar    1  UNL1        0.1562
     13 O         143.8415  138.6169  156.6288 O.2     1  UNL1       -0.3577
     14 N         144.3090  139.8620  157.3226 N.ar    1  UNL1       -0.0773
     15 C         143.5428  139.9931  158.6055 C.ar    1  UNL1        0.1240
     16 C         142.6018  138.8291  158.7045 C.ar    1  UNL1        0.0713
     17 C         143.6914  141.0948  159.6125 C.ar    1  UNL1        0.0210
     18 C         144.5727  140.9019  160.8108 C.ar    1  UNL1        0.0025
     19 C         144.7214  142.0036  161.8178 C.ar    1  UNL1        0.0114
     20 C         143.9886  143.2984  161.6265 C.ar    1  UNL1        0.0577
     21 CL        144.1373  144.4001  162.6335 Cl      1  UNL1       -0.0822
     22 C         143.1072  143.4915  160.4282 C.ar    1  UNL1        0.0114
     23 C         142.9586  142.3896  159.4212 C.ar    1  UNL1        0.0025
     24 C         138.3335  137.2582  165.7090 C.3     1  UNL1        0.0437
     25 C         137.8942  138.3803  166.6024 C.3     1  UNL1        0.0768
     26 N         138.7878  139.5670  166.8105 N.3     1  UNL1       -0.2737
     27 C         139.7148  139.7801  167.9703 C.3     1  UNL1        0.0721
     28 C         140.4111  141.0938  167.7719 C.3     1  UNL1        0.0187
     29 C         139.9144  141.6926  166.4894 C.3     1  UNL1        0.0174
     30 C         138.9111  140.7490  165.8953 C.3     1  UNL1        0.0576
     31 C         138.1626  140.9519  164.6113 C.3     1  UNL1        0.0173
@<TRIPOS>BOND
     1    11    12    1
     2    12    13   ar
     3    13    14   ar
     4    14    15   ar
     5    15    17    1
     6    17    18   ar
     7    18    19   ar
     8    19    20   ar
     9    20    21    1
    10    20    22   ar
    11    22    23   ar
    12    15    16   ar
    13    16     1    1
    14     1     2   ar
    15     2     3   ar
    16     3     4   ar
    17     4     5   ar
    18     5     6   ar
    19     6    24    1
    20    24    25    1
    21    25    26    1
    22    26    27    1
    23    27    28    1
    24    28    29    1
    25    29    30    1
    26    30    31    1
    27     6     7   ar
    28     7     8   ar
    29     8     9   ar
    30     9    10   ar
    31    16    12   ar
    32    10     1   ar
    33    23    17   ar
    34     9     4   ar
    35    30    26    1
@<TRIPOS>MOLECULE
*****
 31 35 0 0 0
SMALL
GASTEIGER

@<TRIPOS>ATOM
      1 C         141.6389  141.5578  166.4834 C.ar    1  UNL1        0.0855
      2 C         140.2116  141.9443  166.7354 C.ar    1  UNL1        0.0193
      3 C         139.5719  143.0262  165.9169 C.ar    1  UNL1        0.0030
      4 C         140.3594  143.7217  164.8463 C.ar    1  UNL1        0.0174
      5 C         139.7196  144.8037  164.0277 C.ar    1  UNL1       -0.0027
      6 C         140.5071  145.4992  162.9571 C.ar    1  UNL1       -0.0207
      7 C         141.9344  145.1126  162.7051 C.ar    1  UNL1       -0.0027
      8 C         142.5741  144.0307  163.5236 C.ar    1  UNL1        0.0188
      9 C         141.7866  143.3352  164.5942 C.ar    1  UNL1        0.0812
     10 N         142.4264  142.2533  165.4128 N.ar    1  UNL1       -0.2452
     11 C         142.0035  141.5674  169.7263 C.3     1  UNL1        0.0754
     12 C         142.4463  140.4802  168.7925 C.ar    1  UNL1        0.1562
     13 O         143.1344  139.2066  169.1854 O.2     1  UNL1       -0.3577
     14 N         143.3921  138.4150  167.9376 N.ar    1  UNL1       -0.0773
     15 C         142.8633  139.1994  166.7736 C.ar    1  UNL1        0.1240
     16 C         142.2787  140.4758  167.3019 C.ar    1  UNL1        0.0713
     17 C         142.9106  138.7809  165.3339 C.ar    1  UNL1        0.0210
     18 C         144.0681  139.1894  164.4718 C.ar    1  UNL1        0.0025
     19 C         144.1155  138.7709  163.0321 C.ar    1  UNL1        0.0114
     20 C         143.0053  137.9439  162.4545 C.ar    1  UNL1        0.0577
     21 CL        143.0527  137.5254  161.0149 Cl      1  UNL1       -0.0822
     22 C         141.8477  137.5353  163.3167 C.ar    1  UNL1        0.0114
     23 C         141.8005  137.9539  164.7563 C.ar    1  UNL1        0.0025
     24 C         139.8673  146.5811  162.1386 C.3     1  UNL1        0.0437
     25 C         139.3966  146.2881  160.7447 C.3     1  UNL1        0.0768
     26 N         140.0731  145.2235  159.9329 N.3     1  UNL1       -0.2737
     27 C         141.1652  145.4415  158.9280 C.3     1  UNL1        0.0721
     28 C         141.5433  144.1067  158.3575 C.3     1  UNL1        0.0187
     29 C         140.6848  143.0639  159.0098 C.3     1  UNL1        0.0174
     30 C         139.7761  143.7541  159.9835 C.3     1  UNL1        0.0576
     31 C         138.7507  143.0912  160.8547 C.3     1  UNL1        0.0173
@<TRIPOS>BOND
     1    11    12    1
     2    12    13   ar
     3    13    14   ar
     4    14    15   ar
     5    15    17    1
     6    17    18   ar
     7    18    19   ar
     8    19    20   ar
     9    20    21    1
    10    20    22   ar
    11    22    23   ar
    12    15    16   ar
    13    16     1    1
    14     1     2   ar
    15     2     3   ar
    16     3     4   ar
    17     4     5   ar
    18     5     6   ar
    19     6    24    1
    20    24    25    1
    21    25    26    1
    22    26    27    1
    23    27    28    1
    24    28    29    1
    25    29    30    1
    26    30    31    1
    27     6     7   ar
    28     7     8   ar
    29     8     9   ar
    30     9    10   ar
    31    16    12   ar
    32    10     1   ar
    33    23    17   ar
    34     9     4   ar
    35    30    26    1
@<TRIPOS>MOLECULE
*****
 31 35 0 0 0
SMALL
GASTEIGER

@<TRIPOS>ATOM
      1 C         142.3737  140.0933  162.8045 C.ar    1  UNL1        0.0855
      2 C         143.3451  140.3348  163.9216 C.ar    1  UNL1        0.0193
      3 C         142.8697  140.3242  165.3442 C.ar    1  UNL1        0.0030
      4 C         141.4229  140.0721  165.6497 C.ar    1  UNL1        0.0174
      5 C         140.9476  140.0615  167.0724 C.ar    1  UNL1       -0.0027
      6 C         139.5008  139.8093  167.3778 C.ar    1  UNL1       -0.0207
      7 C         138.5294  139.5677  166.2606 C.ar    1  UNL1       -0.0027
      8 C         139.0048  139.5783  164.8380 C.ar    1  UNL1        0.0188
      9 C         140.4516  139.8305  164.5325 C.ar    1  UNL1        0.0812
     10 N         140.9269  139.8411  163.1099 N.ar    1  UNL1       -0.2452
     11 C         144.0555  137.7192  161.3261 C.3     1  UNL1        0.0754
     12 C         143.6221  139.0126  160.7023 C.ar    1  UNL1        0.1562
     13 O         143.8856  139.4419  159.2894 O.2     1  UNL1       -0.3577
     14 N         143.2755  140.7985  159.0956 N.ar    1  UNL1       -0.0773
     15 C         142.6349  141.2076  160.3888 C.ar    1  UNL1        0.1240
     16 C         142.8491  140.1039  161.3818 C.ar    1  UNL1        0.0713
     17 C         141.9077  142.4944  160.6442 C.ar    1  UNL1        0.0210
     18 C         142.4717  143.4962  161.6076 C.ar    1  UNL1        0.0025
     19 C         141.7445  144.7831  161.8630 C.ar    1  UNL1        0.0114
     20 C         140.4533  145.0682  161.1548 C.ar    1  UNL1        0.0577
     21 CL        139.7261  146.3550  161.4102 Cl      1  UNL1       -0.0822
     22 C         139.8892  144.0664  160.1913 C.ar    1  UNL1        0.0114
     23 C         140.6165  142.7796  159.9360 C.ar    1  UNL1        0.0025
     24 C         139.0254  139.7987  168.8004 C.3     1  UNL1        0.0437
     25 C         139.9822  140.1090  169.9133 C.3     1  UNL1        0.0768
     26 N         140.6195  141.4642  169.9984 N.3     1  UNL1       -0.2737
     27 C         139.8968  142.7783  170.0248 C.3     1  UNL1        0.0721
     28 C         140.9222  143.8695  170.1147 C.3     1  UNL1        0.0187
     29 C         142.2786  143.2296  170.1439 C.3     1  UNL1        0.0174
     30 C         142.0915  141.7431  170.0720 C.3     1  UNL1        0.0576
     31 C         143.1846  140.7159  170.0735 C.3     1  UNL1        0.0173
@<TRIPOS>BOND
     1    11    12    1
     2    12    13   ar
     3    13    14   ar
     4    14    15   ar
     5    15    17    1
     6    17    18   ar
     7    18    19   ar
     8    19    20   ar
     9    20    21    1
    10    20    22   ar
    11    22    23   ar
    12    15    16   ar
    13    16     1    1
    14     1     2   ar
    15     2     3   ar
    16     3     4   ar
    17     4     5   ar
    18     5     6   ar
    19     6    24    1
    20    24    25    1
    21    25    26    1
    22    26    27    1
    23    27    28    1
    24    28    29    1
    25    29    30    1
    26    30    31    1
    27     6     7   ar
    28     7     8   ar
    29     8     9   ar
    30     9    10   ar
    31    16    12   ar
    32    10     1   ar
    33    23    17   ar
    34     9     4   ar
    35    30    26    1
@<TRIPOS>MOLECULE
*****
 31 35 0 0 0
SMALL
GASTEIGER

@<TRIPOS>ATOM
      1 C         140.7592  140.0437  166.0217 C.ar    1  UNL1        0.0855
      2 C         141.8790  139.0880  165.7345 C.ar    1  UNL1        0.0193
      3 C         142.9085  139.4288  164.6982 C.ar    1  UNL1        0.0030
      4 C         142.8181  140.7253  163.9491 C.ar    1  UNL1        0.0174
      5 C         143.8477  141.0661  162.9128 C.ar    1  UNL1       -0.0027
      6 C         143.7573  142.3625  162.1637 C.ar    1  UNL1       -0.0207
      7 C         142.6374  143.3182  162.4511 C.ar    1  UNL1       -0.0027
      8 C         141.6079  142.9774  163.4874 C.ar    1  UNL1        0.0188
      9 C         141.6983  141.6809  164.2364 C.ar    1  UNL1        0.0812
     10 N         140.6688  141.3401  165.2727 N.ar    1  UNL1       -0.2452
     11 C         138.1771  138.0947  165.5923 C.3     1  UNL1        0.0754
     12 C         138.5428  138.8071  166.8607 C.ar    1  UNL1        0.1562
     13 O         137.7859  138.7487  168.1543 O.2     1  UNL1       -0.3577
     14 N         138.5049  139.6084  169.1513 N.ar    1  UNL1       -0.0773
     15 C         139.7062  140.1982  168.4738 C.ar    1  UNL1        0.1240
     16 C         139.7296  139.7029  167.0581 C.ar    1  UNL1        0.0713
     17 C         140.7081  141.1211  169.1017 C.ar    1  UNL1        0.0210
     18 C         142.0881  140.6262  169.4189 C.ar    1  UNL1        0.0025
     19 C         143.0900  141.5491  170.0469 C.ar    1  UNL1        0.0114
     20 C         142.7119  142.9671  170.3576 C.ar    1  UNL1        0.0577
     21 CL        143.7139  143.8900  170.9855 Cl      1  UNL1       -0.0822
     22 C         141.3319  143.4621  170.0403 C.ar    1  UNL1        0.0114
     23 C         140.3300  142.5391  169.4124 C.ar    1  UNL1        0.0025
     24 C         144.7868  142.7033  161.1274 C.3     1  UNL1        0.0437
     25 C         144.5151  142.4218  159.6793 C.3     1  UNL1        0.0768
     26 N         143.4782  141.4088  159.2939 N.3     1  UNL1       -0.2737
     27 C         143.6896  139.9277  159.1867 C.3     1  UNL1        0.0721
     28 C         142.3898  139.3025  158.7746 C.3     1  UNL1        0.0187
     29 C         141.3751  140.3974  158.6271 C.3     1  UNL1        0.0174
     30 C         142.0478  141.6991  158.9480 C.3     1  UNL1        0.0576
     31 C         141.4031  143.0534  158.9268 C.3     1  UNL1        0.0173
@<TRIPOS>BOND
     1    11    12    1
     2    12    13   ar
     3    13    14   ar
     4    14    15   ar
     5    15    17    1
     6    17    18   ar
     7    18    19   ar
     8    19    20   ar
     9    20    21    1
    10    20    22   ar
    11    22    23   ar
    12    15    16   ar
    13    16     1    1
    14     1     2   ar
    15     2     3   ar
    16     3     4   ar
    17     4     5   ar
    18     5     6   ar
    19     6    24    1
    20    24    25    1
    21    25    26    1
    22    26    27    1
    23    27    28    1
    24    28    29    1
    25    29    30    1
    26    30    31    1
    27     6     7   ar
    28     7     8   ar
    29     8     9   ar
    30     9    10   ar
    31    16    12   ar
    32    10     1   ar
    33    23    17   ar
    34     9     4   ar
    35    30    26    1
@<TRIPOS>MOLECULE
*****
 31 35 0 0 0
SMALL
GASTEIGER

@<TRIPOS>ATOM
      1 C         140.5631  143.2623  162.4467 C.ar    1  UNL1        0.0855
      2 C         141.5130  143.7411  163.5043 C.ar    1  UNL1        0.0193
      3 C         141.4608  143.1507  164.8821 C.ar    1  UNL1        0.0030
      4 C         140.4589  142.0814  165.2025 C.ar    1  UNL1        0.0174
      5 C         140.4067  141.4909  166.5804 C.ar    1  UNL1       -0.0027
      6 C         139.4048  140.4216  166.9007 C.ar    1  UNL1       -0.0207
      7 C         138.4549  139.9427  165.8431 C.ar    1  UNL1       -0.0027
      8 C         138.5070  140.5332  164.4652 C.ar    1  UNL1        0.0188
      9 C         139.5090  141.6025  164.1449 C.ar    1  UNL1        0.0812
     10 N         139.5611  142.1930  162.7670 N.ar    1  UNL1       -0.2452
     11 C         139.7302  146.3110  161.6334 C.3     1  UNL1        0.0754
     12 C         140.2324  145.2541  160.6949 C.ar    1  UNL1        0.1562
     13 O         140.4399  145.4129  159.2179 O.2     1  UNL1       -0.3577
     14 N         140.9510  144.1098  158.6788 N.ar    1  UNL1       -0.0773
     15 C         141.0594  143.1456  159.8227 C.ar    1  UNL1        0.1240
     16 C         140.6152  143.8528  161.0688 C.ar    1  UNL1        0.0713
     17 C         141.5294  141.7238  159.7358 C.ar    1  UNL1        0.0210
     18 C         142.9964  141.4147  159.7811 C.ar    1  UNL1        0.0025
     19 C         143.4664  139.9929  159.6942 C.ar    1  UNL1        0.0114
     20 C         142.4693  138.8801  159.5620 C.ar    1  UNL1        0.0577
     21 CL        142.9393  137.4583  159.4751 Cl      1  UNL1       -0.0822
     22 C         141.0021  139.1891  159.5167 C.ar    1  UNL1        0.0114
     23 C         140.5322  140.6110  159.6036 C.ar    1  UNL1        0.0025
     24 C         139.3526  139.8311  168.2786 C.3     1  UNL1        0.0437
     25 C         139.6362  140.6912  169.4744 C.3     1  UNL1        0.0768
     26 N         141.0179  141.2292  169.7006 N.3     1  UNL1       -0.2737
     27 C         142.2726  140.4156  169.8182 C.3     1  UNL1        0.0721
     28 C         143.4178  141.3589  170.0392 C.3     1  UNL1        0.0187
     29 C         142.8708  142.7555  170.0582 C.3     1  UNL1        0.0174
     30 C         141.3876  142.6754  169.8489 C.3     1  UNL1        0.0576
     31 C         140.4405  143.8373  169.7971 C.3     1  UNL1        0.0173
@<TRIPOS>BOND
     1    11    12    1
     2    12    13   ar
     3    13    14   ar
     4    14    15   ar
     5    15    17    1
     6    17    18   ar
     7    18    19   ar
     8    19    20   ar
     9    20    21    1
    10    20    22   ar
    11    22    23   ar
    12    15    16   ar
    13    16     1    1
    14     1     2   ar
    15     2     3   ar
    16     3     4   ar
    17     4     5   ar
    18     5     6   ar
    19     6    24    1
    20    24    25    1
    21    25    26    1
    22    26    27    1
    23    27    28    1
    24    28    29    1
    25    29    30    1
    26    30    31    1
    27     6     7   ar
    28     7     8   ar
    29     8     9   ar
    30     9    10   ar
    31    16    12   ar
    32    10     1   ar
    33    23    17   ar
    34     9     4   ar
    35    30    26    1
@<TRIPOS>MOLECULE
*****
 31 35 0 0 0
SMALL
GASTEIGER

@<TRIPOS>ATOM
      1 C         141.4789  138.4872  159.3633 C.ar    1  UNL1        0.0855
      2 C         139.9866  138.5646  159.2334 C.ar    1  UNL1        0.0193
      3 C         139.1173  138.3606  160.4386 C.ar    1  UNL1        0.0030
      4 C         139.7403  138.0793  161.7738 C.ar    1  UNL1        0.0174
      5 C         138.8709  137.8754  162.9791 C.ar    1  UNL1       -0.0027
      6 C         139.4940  137.5940  164.3143 C.ar    1  UNL1       -0.0207
      7 C         140.9864  137.5166  164.4442 C.ar    1  UNL1       -0.0027
      8 C         141.8557  137.7206  163.2389 C.ar    1  UNL1        0.0188
      9 C         141.2326  138.0019  161.9037 C.ar    1  UNL1        0.0812
     10 N         142.1020  138.2058  160.6985 N.ar    1  UNL1       -0.2452
     11 C         142.7977  136.1324  157.5287 C.3     1  UNL1        0.0754
     12 C         142.9544  137.6088  157.3148 C.ar    1  UNL1        0.1562
     13 O         143.7449  138.2619  156.2200 O.2     1  UNL1       -0.3577
     14 N         143.6273  139.7481  156.3867 N.ar    1  UNL1       -0.0773
     15 C         142.7642  140.0133  157.5844 C.ar    1  UNL1        0.1240
     16 C         142.3483  138.6911  158.1580 C.ar    1  UNL1        0.0713
     17 C         142.3837  141.3636  158.1154 C.ar    1  UNL1        0.0210
     18 C         143.1786  141.9842  159.2257 C.ar    1  UNL1        0.0025
     19 C         142.7982  143.3345  159.7566 C.ar    1  UNL1        0.0114
     20 C         141.6227  144.0642  159.1772 C.ar    1  UNL1        0.0577
     21 CL        141.2422  145.4145  159.7081 Cl      1  UNL1       -0.0822
     22 C         140.8276  143.4436  158.0668 C.ar    1  UNL1        0.0114
     23 C         141.2082  142.0933  157.5359 C.ar    1  UNL1        0.0025
     24 C         138.6247  137.3901  165.5195 C.3     1  UNL1        0.0437
     25 C         138.0975  138.5751  166.2733 C.3     1  UNL1        0.0768
     26 N         138.9457  139.8023  166.4297 N.3     1  UNL1       -0.2737
     27 C         139.9520  140.0461  167.5151 C.3     1  UNL1        0.0721
     28 C         140.5647  141.3957  167.2844 C.3     1  UNL1        0.0187
     29 C         139.9371  141.9859  166.0565 C.3     1  UNL1        0.0174
     30 C         138.9365  141.0011  165.5283 C.3     1  UNL1        0.0576
     31 C         138.0776  141.1833  164.3121 C.3     1  UNL1        0.0173
@<TRIPOS>BOND
     1    11    12    1
     2    12    13   ar
     3    13    14   ar
     4    14    15   ar
     5    15    17    1
     6    17    18   ar
     7    18    19   ar
     8    19    20   ar
     9    20    21    1
    10    20    22   ar
    11    22    23   ar
    12    15    16   ar
    13    16     1    1
    14     1     2   ar
    15     2     3   ar
    16     3     4   ar
    17     4     5   ar
    18     5     6   ar
    19     6    24    1
    20    24    25    1
    21    25    26    1
    22    26    27    1
    23    27    28    1
    24    28    29    1
    25    29    30    1
    26    30    31    1
    27     6     7   ar
    28     7     8   ar
    29     8     9   ar
    30     9    10   ar
    31    16    12   ar
    32    10     1   ar
    33    23    17   ar
    34     9     4   ar
    35    30    26    1
@<TRIPOS>MOLECULE
*****
 31 35 0 0 0
SMALL
GASTEIGER

@<TRIPOS>ATOM
      1 C         139.7988  139.3474  163.9462 C.ar    1  UNL1        0.0855
      2 C         138.6688  139.5785  162.9873 C.ar    1  UNL1        0.0193
      3 C         138.8603  139.3109  161.5239 C.ar    1  UNL1        0.0030
      4 C         140.1820  138.8122  161.0194 C.ar    1  UNL1        0.0174
      5 C         140.3735  138.5446  159.5559 C.ar    1  UNL1       -0.0027
      6 C         141.6951  138.0458  159.0513 C.ar    1  UNL1       -0.0207
      7 C         142.8252  137.8147  160.0103 C.ar    1  UNL1       -0.0027
      8 C         142.6336  138.0823  161.4737 C.ar    1  UNL1        0.0188
      9 C         141.3120  138.5810  161.9782 C.ar    1  UNL1        0.0812
     10 N         141.1205  138.8486  163.4417 N.ar    1  UNL1       -0.2452
     11 C         138.1046  137.4931  166.0297 C.3     1  UNL1        0.0754
     12 C         138.8286  138.7627  166.3674 C.ar    1  UNL1        0.1562
     13 O         138.9009  139.4028  167.7220 O.2     1  UNL1       -0.3577
     14 N         139.7244  140.6508  167.6015 N.ar    1  UNL1       -0.0773
     15 C         140.1610  140.7819  166.1725 C.ar    1  UNL1        0.1240
     16 C         139.6073  139.6150  165.4097 C.ar    1  UNL1        0.0713
     17 C         141.0033  141.8861  165.6057 C.ar    1  UNL1        0.0210
     18 C         142.4993  141.7894  165.6556 C.ar    1  UNL1        0.0025
     19 C         143.3416  142.8935  165.0888 C.ar    1  UNL1        0.0114
     20 C         142.6879  144.0945  164.4721 C.ar    1  UNL1        0.0577
     21 CL        143.5303  145.1987  163.9053 Cl      1  UNL1       -0.0822
     22 C         141.1918  144.1913  164.4222 C.ar    1  UNL1        0.0114
     23 C         140.3496  143.0871  164.9890 C.ar    1  UNL1        0.0025
     24 C         141.8867  137.7782  157.5879 C.3     1  UNL1        0.0437
     25 C         142.8930  136.7614  157.1368 C.3     1  UNL1        0.0768
     26 N         142.4337  135.4797  156.5073 N.3     1  UNL1       -0.2737
     27 C         141.3897  135.3468  155.4386 C.3     1  UNL1        0.0721
     28 C         141.2485  133.8908  155.1068 C.3     1  UNL1        0.0187
     29 C         142.2055  133.1238  155.9706 C.3     1  UNL1        0.0174
     30 C         142.9379  134.1058  156.8361 C.3     1  UNL1        0.0576
     31 C         143.9899  133.7723  157.8521 C.3     1  UNL1        0.0173
@<TRIPOS>BOND
     1    11    12    1
     2    12    13   ar
     3    13    14   ar
     4    14    15   ar
     5    15    17    1
     6    17    18   ar
     7    18    19   ar
     8    19    20   ar
     9    20    21    1
    10    20    22   ar
    11    22    23   ar
    12    15    16   ar
    13    16     1    1
    14     1     2   ar
    15     2     3   ar
    16     3     4   ar
    17     4     5   ar
    18     5     6   ar
    19     6    24    1
    20    24    25    1
    21    25    26    1
    22    26    27    1
    23    27    28    1
    24    28    29    1
    25    29    30    1
    26    30    31    1
    27     6     7   ar
    28     7     8   ar
    29     8     9   ar
    30     9    10   ar
    31    16    12   ar
    32    10     1   ar
    33    23    17   ar
    34     9     4   ar
    35    30    26    1
@<TRIPOS>MOLECULE
*****
 31 35 0 0 0
SMALL
GASTEIGER

@<TRIPOS>ATOM
      1 C         142.2922  142.1780  166.5930 C.ar    1  UNL1        0.0855
      2 C         143.4562  142.7617  165.8486 C.ar    1  UNL1        0.0193
      3 C         143.2210  143.7472  164.7425 C.ar    1  UNL1        0.0030
      4 C         141.8218  144.1490  164.3810 C.ar    1  UNL1        0.0174
      5 C         141.5866  145.1346  163.2748 C.ar    1  UNL1       -0.0027
      6 C         140.1874  145.5363  162.9133 C.ar    1  UNL1       -0.0207
      7 C         139.0233  144.9525  163.6578 C.ar    1  UNL1       -0.0027
      8 C         139.2585  143.9670  164.7638 C.ar    1  UNL1        0.0188
      9 C         140.6578  143.5652  165.1254 C.ar    1  UNL1        0.0812
     10 N         140.8930  142.5797  166.2315 N.ar    1  UNL1       -0.2452
     11 C         143.9441  142.7462  169.3495 C.3     1  UNL1        0.0754
     12 C         143.2867  141.4536  168.9661 C.ar    1  UNL1        0.1562
     13 O         143.2732  140.1952  169.7824 O.2     1  UNL1       -0.3577
     14 N         142.5055  139.1563  169.0199 N.ar    1  UNL1       -0.0773
     15 C         142.0446  139.7726  167.7324 C.ar    1  UNL1        0.1240
     16 C         142.5274  141.1924  167.6991 C.ar    1  UNL1        0.0713
     17 C         141.2419  139.0891  166.6654 C.ar    1  UNL1        0.0210
     18 C         139.7458  139.1972  166.6673 C.ar    1  UNL1        0.0025
     19 C         138.9431  138.5137  165.6003 C.ar    1  UNL1        0.0114
     20 C         139.6364  137.7220  164.5314 C.ar    1  UNL1        0.0577
     21 CL        138.8337  137.0385  163.4645 Cl      1  UNL1       -0.0822
     22 C         141.1326  137.6138  164.5295 C.ar    1  UNL1        0.0114
     23 C         141.9352  138.2974  165.5965 C.ar    1  UNL1        0.0025
     24 C         139.9521  146.5218  161.8072 C.3     1  UNL1        0.0437
     25 C         139.6264  146.0356  160.4261 C.3     1  UNL1        0.0768
     26 N         140.4348  144.9329  159.8091 N.3     1  UNL1       -0.2737
     27 C         141.6844  145.1039  158.9972 C.3     1  UNL1        0.0721
     28 C         142.1574  143.7424  158.5820 C.3     1  UNL1        0.0187
     29 C         141.2000  142.7299  159.1373 C.3     1  UNL1        0.0174
     30 C         140.1353  143.4657  159.8956 C.3     1  UNL1        0.0576
     31 C         138.9751  142.8435  160.6143 C.3     1  UNL1        0.0173
@<TRIPOS>BOND
     1    11    12    1
     2    12    13   ar
     3    13    14   ar
     4    14    15   ar
     5    15    17    1
     6    17    18   ar
     7    18    19   ar
     8    19    20   ar
     9    20    21    1
    10    20    22   ar
    11    22    23   ar
    12    15    16   ar
    13    16     1    1
    14     1     2   ar
    15     2     3   ar
    16     3     4   ar
    17     4     5   ar
    18     5     6   ar
    19     6    24    1
    20    24    25    1
    21    25    26    1
    22    26    27    1
    23    27    28    1
    24    28    29    1
    25    29    30    1
    26    30    31    1
    27     6     7   ar
    28     7     8   ar
    29     8     9   ar
    30     9    10   ar
    31    16    12   ar
    32    10     1   ar
    33    23    17   ar
    34     9     4   ar
    35    30    26    1
@<TRIPOS>MOLECULE
*****
 31 35 0 0 0
SMALL
GASTEIGER

@<TRIPOS>ATOM
      1 C         140.8736  139.0961  163.5668 C.ar    1  UNL1        0.0855
      2 C         142.2707  138.5513  163.5992 C.ar    1  UNL1        0.0193
      3 C         142.9359  138.1168  162.3269 C.ar    1  UNL1        0.0030
      4 C         142.2039  138.2271  161.0223 C.ar    1  UNL1        0.0174
      5 C         142.8692  137.7926  159.7500 C.ar    1  UNL1       -0.0027
      6 C         142.1373  137.9029  158.4453 C.ar    1  UNL1       -0.0207
      7 C         140.7400  138.4478  158.4130 C.ar    1  UNL1       -0.0027
      8 C         140.0748  138.8823  159.6853 C.ar    1  UNL1        0.0188
      9 C         140.8068  138.7719  160.9899 C.ar    1  UNL1        0.0812
     10 N         140.1416  139.2064  162.2621 N.ar    1  UNL1       -0.2452
     11 C         138.7658  137.3340  165.3281 C.3     1  UNL1        0.0754
     12 C         139.2395  138.7207  165.6486 C.ar    1  UNL1        0.1562
     13 O         138.8275  139.5409  166.8350 O.2     1  UNL1       -0.3577
     14 N         139.5417  140.8578  166.7587 N.ar    1  UNL1       -0.0773
     15 C         140.3951  140.8514  165.5252 C.ar    1  UNL1        0.1240
     16 C         140.2083  139.5306  164.8391 C.ar    1  UNL1        0.0713
     17 C         141.2799  141.9695  165.0594 C.ar    1  UNL1        0.0210
     18 C         142.7593  141.9042  165.2977 C.ar    1  UNL1        0.0025
     19 C         143.6441  143.0223  164.8319 C.ar    1  UNL1        0.0114
     20 C         143.0494  144.2058  164.1279 C.ar    1  UNL1        0.0577
     21 CL        143.9342  145.3240  163.6622 Cl      1  UNL1       -0.0822
     22 C         141.5699  144.2712  163.8896 C.ar    1  UNL1        0.0114
     23 C         140.6852  143.1530  164.3554 C.ar    1  UNL1        0.0025
     24 C         142.8025  137.4684  157.1731 C.3     1  UNL1        0.0437
     25 C         142.1485  136.4405  156.2979 C.3     1  UNL1        0.0768
     26 N         142.5182  134.9934  156.4358 N.3     1  UNL1       -0.2737
     27 C         143.3488  134.3962  157.5329 C.3     1  UNL1        0.0721
     28 C         143.4662  132.9231  157.2759 C.3     1  UNL1        0.0187
     29 C         142.7082  132.6098  156.0199 C.3     1  UNL1        0.0174
     30 C         142.1224  133.8893  155.5007 C.3     1  UNL1        0.0576
     31 C         141.2873  134.0385  154.2637 C.3     1  UNL1        0.0173
@<TRIPOS>BOND
     1    11    12    1
     2    12    13   ar
     3    13    14   ar
     4    14    15   ar
     5    15    17    1
     6    17    18   ar
     7    18    19   ar
     8    19    20   ar
     9    20    21    1
    10    20    22   ar
    11    22    23   ar
    12    15    16   ar
    13    16     1    1
    14     1     2   ar
    15     2     3   ar
    16     3     4   ar
    17     4     5   ar
    18     5     6   ar
    19     6    24    1
    20    24    25    1
    21    25    26    1
    22    26    27    1
    23    27    28    1
    24    28    29    1
    25    29    30    1
    26    30    31    1
    27     6     7   ar
    28     7     8   ar
    29     8     9   ar
    30     9    10   ar
    31    16    12   ar
    32    10     1   ar
    33    23    17   ar
    34     9     4   ar
    35    30    26    1
