@<TRIPOS>MOLECULE
*****
 36 39 0 0 0
SMALL
GASTEIGER

@<TRIPOS>ATOM
      1 C         141.4717  143.1571  161.5976 C.ar    1  UNL1        0.0537
      2 C         141.7664  142.1107  160.5641 C.ar    1  UNL1        0.0060
      3 C         142.1959  140.7376  160.9884 C.ar    1  UNL1        0.0173
      4 C         142.3308  140.4108  162.4461 C.ar    1  UNL1        0.0594
      5 C         142.0361  141.4572  163.4796 C.ar    1  UNL1        0.0130
      6 C         141.6066  142.8304  163.0553 C.ar    1  UNL1        0.0057
      7 C         142.2550  140.8472  164.8324 C.ar    1  UNL1       -0.0091
      8 C         142.6849  139.4238  164.6350 C.ar    1  UNL1        0.0331
      9 N         142.7318  139.1541  163.1601 N.ar    1  UNL1       -0.3289
     10 C         143.1127  137.8556  162.5129 C.3     1  UNL1        0.1301
     11 C         142.9782  138.5572  165.8235 C.3     1  UNL1        0.0435
     12 C         142.8415  139.1139  167.2097 C.3     1  UNL1        0.0066
     13 C         142.4116  140.5374  167.4071 C.3     1  UNL1        0.0049
     14 C         142.1183  141.4040  166.2185 C.3     1  UNL1        0.0275
     15 C         142.2749  141.0941  168.7933 C.3     1  UNL1        0.0053
     16 C         141.4259  140.3847  169.8061 C.3     1  UNL1        0.0322
     17 C         141.2893  140.9415  171.1923 C.3     1  UNL1        0.1422
     18 O         142.0017  142.2078  171.5655 O.3     1  UNL1       -0.3538
     19 C         142.8507  142.9172  170.5526 C.3     1  UNL1        0.1422
     20 C         142.9873  142.3604  169.1665 C.3     1  UNL1        0.0322
     21 N         139.7259  145.0808  161.6363 N.am    1  UNL1       -0.2735
     22 C         139.2963  146.4539  161.2120 C.3     1  UNL1        0.1152
     23 C         141.0422  144.5302  161.1734 C.2     1  UNL1        0.2491
     24 O         141.9289  145.3528  160.2863 O.2     1  UNL1       -0.2699
     25 C         138.8391  144.2582  162.5234 C.3     1  UNL1        0.1054
     26 C         138.6172  144.6676  163.9493 C.3     1  UNL1        0.1568
     27 O         139.7472  145.2466  164.7479 O.3     1  UNL1       -0.3802
     28 H         140.4309  144.5708  164.8776 H       1  UNL1        0.2105
     29 C         138.1743  143.0262  161.9847 C.3     1  UNL1        0.0319
     30 C         137.3818  142.1405  162.8999 C.3     1  UNL1        0.0868
     31 N         137.7807  140.5869  164.9437 N.am    1  UNL1       -0.3043
     32 C         138.0180  140.9224  163.5011 C.2     1  UNL1        0.2225
     33 O         138.8914  140.0397  162.6597 O.2     1  UNL1       -0.2751
     34 H         137.2074  141.1663  165.4959 H       1  UNL1        0.1494
     35 C         138.9663  139.4206  166.9397 C.3     1  UNL1        0.0230
     36 C         138.4169  139.3688  165.5449 C.3     1  UNL1        0.0894
@<TRIPOS>BOND
     1    35    36    1
     2    36    31    1
     3    31    32   am
     4    32    33    2
     5    32    30    1
     6    30    29    1
     7    25    29    1
     8    25    26    1
     9    26    27    1
    10    25    21    1
    11    21    22    1
    12    21    23   am
    13    23    24    2
    14    23     1    1
    15     1     2   ar
    16     2     3   ar
    17     3     4   ar
    18     4     5   ar
    19     5     6   ar
    20     5     7   ar
    21     7     8   ar
    22     8     9   ar
    23     9    10    1
    24     8    11    1
    25    11    12    1
    26    12    13    1
    27    13    15    1
    28    15    16    1
    29    16    17    1
    30    17    18    1
    31    18    19    1
    32    19    20    1
    33    13    14    1
    34     6     1   ar
    35    14     7    1
    36     9     4   ar
    37    20    15    1
    38    31    34    1
    39    27    28    1
@<TRIPOS>MOLECULE
*****
 36 39 0 0 0
SMALL
GASTEIGER

@<TRIPOS>ATOM
      1 C         140.1763  141.8540  160.7715 C.ar    1  UNL1        0.0537
      2 C         141.4595  141.9833  160.0057 C.ar    1  UNL1        0.0060
      3 C         142.7594  142.1306  160.7396 C.ar    1  UNL1        0.0173
      4 C         142.7760  142.1487  162.2394 C.ar    1  UNL1        0.0594
      5 C         141.4927  142.0195  163.0052 C.ar    1  UNL1        0.0130
      6 C         140.1929  141.8721  162.2712 C.ar    1  UNL1        0.0057
      7 C         141.8189  142.0704  164.4685 C.ar    1  UNL1       -0.0091
      8 C         143.3039  142.2311  164.6069 C.ar    1  UNL1        0.0331
      9 N         143.8953  142.2795  163.2293 N.ar    1  UNL1       -0.3289
     10 C         145.3506  142.4320  162.8995 C.3     1  UNL1        0.1301
     11 C         143.9256  142.3126  165.9695 C.3     1  UNL1        0.0435
     12 C         143.0624  142.2334  167.1937 C.3     1  UNL1        0.0066
     13 C         141.5775  142.0727  167.0552 C.3     1  UNL1        0.0049
     14 C         140.9558  141.9912  165.6926 C.3     1  UNL1        0.0275
     15 C         140.7143  141.9934  168.2794 C.3     1  UNL1        0.0053
     16 C         139.9304  140.7468  168.5650 C.3     1  UNL1        0.0322
     17 C         139.0672  140.6676  169.7892 C.3     1  UNL1        0.1422
     18 O         138.9879  141.8351  170.7278 O.3     1  UNL1       -0.3538
     19 C         139.7717  143.0817  170.4422 C.3     1  UNL1        0.1422
     20 C         140.6349  143.1609  169.2180 C.3     1  UNL1        0.0322
     21 N         138.3358  140.3403  159.7365 N.am    1  UNL1       -0.2735
     22 C         137.0359  140.1929  159.0026 C.3     1  UNL1        0.1152
     23 C         138.8764  141.7067  160.0375 C.2     1  UNL1        0.2491
     24 O         138.1172  142.9257  159.6045 O.2     1  UNL1       -0.2699
     25 C         139.0950  139.1212  160.1695 C.3     1  UNL1        0.1054
     26 C         140.3239  138.6978  159.4209 C.3     1  UNL1        0.1568
     27 O         141.6246  138.5291  160.1487 O.3     1  UNL1       -0.3802
     28 H         141.9244  139.3905  160.4789 H       1  UNL1        0.2105
     29 C         138.6252  138.3255  161.3511 C.3     1  UNL1        0.0319
     30 C         139.0982  138.6798  162.7299 C.3     1  UNL1        0.0868
     31 N         140.9462  138.5864  164.5536 N.am    1  UNL1       -0.3043
     32 C         140.3694  138.0874  163.2620 C.2     1  UNL1        0.2225
     33 O         141.0638  136.9961  162.5025 O.2     1  UNL1       -0.2751
     34 H         140.4904  139.3027  165.0520 H       1  UNL1        0.1494
     35 C         142.9805  138.7025  166.1655 C.3     1  UNL1        0.0230
     36 C         142.2174  137.9941  165.0858 C.3     1  UNL1        0.0894
@<TRIPOS>BOND
     1    35    36    1
     2    36    31    1
     3    31    32   am
     4    32    33    2
     5    32    30    1
     6    30    29    1
     7    25    29    1
     8    25    26    1
     9    26    27    1
    10    25    21    1
    11    21    22    1
    12    21    23   am
    13    23    24    2
    14    23     1    1
    15     1     2   ar
    16     2     3   ar
    17     3     4   ar
    18     4     5   ar
    19     5     6   ar
    20     5     7   ar
    21     7     8   ar
    22     8     9   ar
    23     9    10    1
    24     8    11    1
    25    11    12    1
    26    12    13    1
    27    13    15    1
    28    15    16    1
    29    16    17    1
    30    17    18    1
    31    18    19    1
    32    19    20    1
    33    13    14    1
    34     6     1   ar
    35    14     7    1
    36     9     4   ar
    37    20    15    1
    38    31    34    1
    39    27    28    1
@<TRIPOS>MOLECULE
*****
 36 39 0 0 0
SMALL
GASTEIGER

@<TRIPOS>ATOM
      1 C         141.9955  140.9867  160.1367 C.ar    1  UNL1        0.0537
      2 C         141.4859  142.1815  159.3866 C.ar    1  UNL1        0.0060
      3 C         140.8178  143.3025  160.1263 C.ar    1  UNL1        0.0173
      4 C         140.6594  143.2286  161.6160 C.ar    1  UNL1        0.0594
      5 C         141.1690  142.0339  162.3661 C.ar    1  UNL1        0.0130
      6 C         141.8371  140.9129  161.6265 C.ar    1  UNL1        0.0057
      7 C         140.8727  142.2396  163.8222 C.ar    1  UNL1       -0.0091
      8 C         140.1799  143.5615  163.9719 C.ar    1  UNL1        0.0331
      9 N         140.0480  144.1728  162.6084 N.ar    1  UNL1       -0.3289
     10 C         139.4158  145.4959  162.2928 C.3     1  UNL1        0.1301
     11 C         139.7586  144.0379  165.3303 C.3     1  UNL1        0.0435
     12 C         140.0302  143.1923  166.5392 C.3     1  UNL1        0.0066
     13 C         140.7230  141.8703  166.3894 C.3     1  UNL1        0.0049
     14 C         141.1443  141.3940  165.0309 C.3     1  UNL1        0.0275
     15 C         140.9946  141.0247  167.5983 C.3     1  UNL1        0.0053
     16 C         140.0107  140.9965  168.7302 C.3     1  UNL1        0.0322
     17 C         140.2823  140.1508  169.9390 C.3     1  UNL1        0.1422
     18 O         141.5377  139.3334  170.0158 O.3     1  UNL1       -0.3538
     19 C         142.5216  139.3617  168.8839 C.3     1  UNL1        0.1422
     20 C         142.2500  140.2073  167.6751 C.3     1  UNL1        0.0322
     21 N         141.8347  138.8194  158.7131 N.am    1  UNL1       -0.2735
     22 C         142.5028  137.6984  157.9734 C.3     1  UNL1        0.1152
     23 C         142.6636  139.8658  159.3970 C.2     1  UNL1        0.2491
     24 O         144.1607  139.7912  159.3413 O.2     1  UNL1       -0.2699
     25 C         140.3375  138.8939  158.7688 C.3     1  UNL1        0.1054
     26 C         139.5907  139.7302  157.7724 C.3     1  UNL1        0.1568
     27 O         138.0938  139.6597  157.7061 O.3     1  UNL1       -0.3802
     28 H         137.8245  138.7760  157.4105 H       1  UNL1        0.2105
     29 C         139.5873  138.1322  159.8208 C.3     1  UNL1        0.0319
     30 C         139.0283  138.8517  161.0125 C.3     1  UNL1        0.0868
     31 N         138.6275  138.9663  163.5768 N.am    1  UNL1       -0.3043
     32 C         139.3119  138.3450  162.3955 C.2     1  UNL1        0.2225
     33 O         140.2799  137.2171  162.5972 O.2     1  UNL1       -0.2751
     34 H         137.9921  139.7066  163.4444 H       1  UNL1        0.1494
     35 C         138.1893  139.0469  166.1364 C.3     1  UNL1        0.0230
     36 C         138.9111  138.4597  164.9599 C.3     1  UNL1        0.0894
@<TRIPOS>BOND
     1    35    36    1
     2    36    31    1
     3    31    32   am
     4    32    33    2
     5    32    30    1
     6    30    29    1
     7    25    29    1
     8    25    26    1
     9    26    27    1
    10    25    21    1
    11    21    22    1
    12    21    23   am
    13    23    24    2
    14    23     1    1
    15     1     2   ar
    16     2     3   ar
    17     3     4   ar
    18     4     5   ar
    19     5     6   ar
    20     5     7   ar
    21     7     8   ar
    22     8     9   ar
    23     9    10    1
    24     8    11    1
    25    11    12    1
    26    12    13    1
    27    13    15    1
    28    15    16    1
    29    16    17    1
    30    17    18    1
    31    18    19    1
    32    19    20    1
    33    13    14    1
    34     6     1   ar
    35    14     7    1
    36     9     4   ar
    37    20    15    1
    38    31    34    1
    39    27    28    1
@<TRIPOS>MOLECULE
*****
 36 39 0 0 0
SMALL
GASTEIGER

@<TRIPOS>ATOM
      1 C         140.2073  142.9408  160.6982 C.ar    1  UNL1        0.0537
      2 C         139.6571  141.7594  159.9556 C.ar    1  UNL1        0.0060
      3 C         139.3687  140.4818  160.6868 C.ar    1  UNL1        0.0173
      4 C         139.6306  140.3856  162.1606 C.ar    1  UNL1        0.0594
      5 C         140.1809  141.5670  162.9032 C.ar    1  UNL1        0.0130
      6 C         140.4692  142.8446  162.1720 C.ar    1  UNL1        0.0057
      7 C         140.3364  141.1778  164.3435 C.ar    1  UNL1       -0.0091
      8 C         139.8823  139.7558  164.4910 C.ar    1  UNL1        0.0331
      9 N         139.4461  139.2663  163.1419 N.ar    1  UNL1       -0.3289
     10 C         138.9180  137.8976  162.8290 C.3     1  UNL1        0.1301
     11 C         139.9246  139.0905  165.8347 C.3     1  UNL1        0.0435
     12 C         140.4211  139.8472  167.0309 C.3     1  UNL1        0.0066
     13 C         140.8752  141.2692  166.8834 C.3     1  UNL1        0.0049
     14 C         140.8329  141.9344  165.5397 C.3     1  UNL1        0.0275
     15 C         141.3717  142.0259  168.0796 C.3     1  UNL1        0.0053
     16 C         142.7687  141.8058  168.5794 C.3     1  UNL1        0.0322
     17 C         143.2652  142.5625  169.7757 C.3     1  UNL1        0.1422
     18 O         142.3646  143.5393  170.4721 O.3     1  UNL1       -0.3538
     19 C         140.9675  143.7593  169.9723 C.3     1  UNL1        0.1422
     20 C         140.4710  143.0026  168.7761 C.3     1  UNL1        0.0322
     21 N         141.7090  144.3239  159.0915 N.am    1  UNL1       -0.2735
     22 C         141.9974  145.6015  158.3603 C.3     1  UNL1        0.1152
     23 C         140.4957  144.2183  159.9670 C.2     1  UNL1        0.2491
     24 O         139.5707  145.3903  160.1114 O.2     1  UNL1       -0.2699
     25 C         142.6340  143.1519  158.9471 C.3     1  UNL1        0.1054
     26 C         142.5437  142.2698  157.7372 C.3     1  UNL1        0.1568
     27 O         141.4833  142.5177  156.7057 O.3     1  UNL1       -0.3802
     28 H         140.6099  142.3514  157.0935 H       1  UNL1        0.2105
     29 C         143.6494  142.8621  160.0125 C.3     1  UNL1        0.0319
     30 C         143.7357  141.4902  160.6130 C.3     1  UNL1        0.0868
     31 N         144.6457  140.0444  162.5703 N.am    1  UNL1       -0.3043
     32 C         144.0521  141.3279  162.0702 C.2     1  UNL1        0.2225
     33 O         143.7749  142.4492  163.0273 O.2     1  UNL1       -0.2751
     34 H         144.8276  139.3086  161.9421 H       1  UNL1        0.1494
     35 C         143.8748  139.5203  164.9954 C.3     1  UNL1        0.0230
     36 C         144.9621  139.8821  164.0276 C.3     1  UNL1        0.0894
@<TRIPOS>BOND
     1    35    36    1
     2    36    31    1
     3    31    32   am
     4    32    33    2
     5    32    30    1
     6    30    29    1
     7    25    29    1
     8    25    26    1
     9    26    27    1
    10    25    21    1
    11    21    22    1
    12    21    23   am
    13    23    24    2
    14    23     1    1
    15     1     2   ar
    16     2     3   ar
    17     3     4   ar
    18     4     5   ar
    19     5     6   ar
    20     5     7   ar
    21     7     8   ar
    22     8     9   ar
    23     9    10    1
    24     8    11    1
    25    11    12    1
    26    12    13    1
    27    13    15    1
    28    15    16    1
    29    16    17    1
    30    17    18    1
    31    18    19    1
    32    19    20    1
    33    13    14    1
    34     6     1   ar
    35    14     7    1
    36     9     4   ar
    37    20    15    1
    38    31    34    1
    39    27    28    1
@<TRIPOS>MOLECULE
*****
 36 39 0 0 0
SMALL
GASTEIGER

@<TRIPOS>ATOM
      1 C         140.5377  140.4394  160.1506 C.ar    1  UNL1        0.0537
      2 C         140.0720  141.6666  159.4246 C.ar    1  UNL1        0.0060
      3 C         139.7065  142.9005  160.1951 C.ar    1  UNL1        0.0173
      4 C         139.8066  142.9073  161.6917 C.ar    1  UNL1        0.0594
      5 C         140.2723  141.6802  162.4178 C.ar    1  UNL1        0.0130
      6 C         140.6378  140.4462  161.6472 C.ar    1  UNL1        0.0057
      7 C         140.2705  141.9822  163.8871 C.ar    1  UNL1       -0.0091
      8 C         139.8037  143.3961  164.0691 C.ar    1  UNL1        0.0331
      9 N         139.5170  143.9678  162.7122 N.ar    1  UNL1       -0.3289
     10 C         139.0268  145.3563  162.4262 C.3     1  UNL1        0.1301
     11 C         139.7000  143.9803  165.4467 C.3     1  UNL1        0.0435
     12 C         140.0631  143.1505  166.6424 C.3     1  UNL1        0.0066
     13 C         140.5299  141.7367  166.4605 C.3     1  UNL1        0.0049
     14 C         140.6336  141.1526  165.0828 C.3     1  UNL1        0.0275
     15 C         140.8930  140.9070  167.6562 C.3     1  UNL1        0.0053
     16 C         142.1685  140.1176  167.6620 C.3     1  UNL1        0.0322
     17 C         142.5316  139.2879  168.8577 C.3     1  UNL1        0.1422
     18 O         141.6191  139.2476  170.0477 O.3     1  UNL1       -0.3538
     19 C         140.3437  140.0369  170.0419 C.3     1  UNL1        0.1422
     20 C         139.9806  140.8666  168.8462 C.3     1  UNL1        0.0322
     21 N         142.3372  138.7752  159.2894 N.am    1  UNL1       -0.2735
     22 C         142.7027  137.5412  158.5189 C.3     1  UNL1        0.1152
     23 C         140.9032  139.2054  159.3801 C.2     1  UNL1        0.2491
     24 O         139.8346  138.4018  158.7002 O.2     1  UNL1       -0.2699
     25 C         143.4059  139.5788  159.9693 C.3     1  UNL1        0.1054
     26 C         143.9250  139.1535  161.3108 C.3     1  UNL1        0.1568
     27 O         144.5732  137.8106  161.4729 O.3     1  UNL1       -0.3802
     28 H         143.9148  137.1138  161.3253 H       1  UNL1        0.2105
     29 C         143.9554  140.8077  159.3077 C.3     1  UNL1        0.0319
     30 C         143.4847  142.1654  159.7382 C.3     1  UNL1        0.0868
     31 N         143.3909  144.0090  161.5664 N.am    1  UNL1       -0.3043
     32 C         144.0489  142.7971  160.9762 C.2     1  UNL1        0.2225
     33 O         145.2710  142.2168  161.6241 O.2     1  UNL1       -0.2751
     34 H         142.5888  144.3898  161.1411 H       1  UNL1        0.1494
     35 C         143.0587  144.9380  163.9698 C.3     1  UNL1        0.0230
     36 C         143.9550  144.6407  162.8044 C.3     1  UNL1        0.0894
@<TRIPOS>BOND
     1    35    36    1
     2    36    31    1
     3    31    32   am
     4    32    33    2
     5    32    30    1
     6    30    29    1
     7    25    29    1
     8    25    26    1
     9    26    27    1
    10    25    21    1
    11    21    22    1
    12    21    23   am
    13    23    24    2
    14    23     1    1
    15     1     2   ar
    16     2     3   ar
    17     3     4   ar
    18     4     5   ar
    19     5     6   ar
    20     5     7   ar
    21     7     8   ar
    22     8     9   ar
    23     9    10    1
    24     8    11    1
    25    11    12    1
    26    12    13    1
    27    13    15    1
    28    15    16    1
    29    16    17    1
    30    17    18    1
    31    18    19    1
    32    19    20    1
    33    13    14    1
    34     6     1   ar
    35    14     7    1
    36     9     4   ar
    37    20    15    1
    38    31    34    1
    39    27    28    1
@<TRIPOS>MOLECULE
*****
 36 39 0 0 0
SMALL
GASTEIGER

@<TRIPOS>ATOM
      1 C         140.6954  140.3210  160.9398 C.ar    1  UNL1        0.0537
      2 C         141.9716  140.5626  160.1895 C.ar    1  UNL1        0.0060
      3 C         143.1791  141.0827  160.9115 C.ar    1  UNL1        0.0173
      4 C         143.1105  141.3612  162.3838 C.ar    1  UNL1        0.0594
      5 C         141.8343  141.1196  163.1341 C.ar    1  UNL1        0.0130
      6 C         140.6267  140.5995  162.4120 C.ar    1  UNL1        0.0057
      7 C         142.0652  141.4835  164.5709 C.ar    1  UNL1       -0.0091
      8 C         143.4842  141.9499  164.7086 C.ar    1  UNL1        0.0331
      9 N         144.1301  141.8744  163.3569 N.ar    1  UNL1       -0.3289
     10 C         145.5471  142.2466  163.0348 C.3     1  UNL1        0.1301
     11 C         144.0047  142.3832  166.0469 C.3     1  UNL1        0.0435
     12 C         143.1062  142.3501  167.2476 C.3     1  UNL1        0.0066
     13 C         141.6873  141.8837  167.1099 C.3     1  UNL1        0.0049
     14 C         141.1668  141.4504  165.7715 C.3     1  UNL1        0.0275
     15 C         140.7888  141.8505  168.3107 C.3     1  UNL1        0.0053
     16 C         139.9580  140.6339  168.5923 C.3     1  UNL1        0.0322
     17 C         139.0595  140.6007  169.7930 C.3     1  UNL1        0.1422
     18 O         138.9920  141.7843  170.7121 O.3     1  UNL1       -0.3538
     19 C         139.8228  143.0010  170.4304 C.3     1  UNL1        0.1422
     20 C         140.7213  143.0342  169.2297 C.3     1  UNL1        0.0322
     21 N         138.4006  140.7451  159.7978 N.am    1  UNL1       -0.2735
     22 C         137.1931  140.2250  159.0757 C.3     1  UNL1        0.1152
     23 C         139.4878  139.8009  160.2177 C.2     1  UNL1        0.2491
     24 O         139.3675  138.3366  159.9156 O.2     1  UNL1       -0.2699
     25 C         138.5209  142.2095  160.0999 C.3     1  UNL1        0.1054
     26 C         138.0200  142.7493  161.4067 C.3     1  UNL1        0.1568
     27 O         137.2714  141.8551  162.3500 O.3     1  UNL1       -0.3802
     28 H         136.4279  141.5949  161.9479 H       1  UNL1        0.2105
     29 C         139.1421  143.1340  159.0952 C.3     1  UNL1        0.0319
     30 C         140.4106  143.8616  159.4292 C.3     1  UNL1        0.0868
     31 N         141.3725  144.3931  161.7833 N.am    1  UNL1       -0.3043
     32 C         140.4710  144.7475  160.6381 C.2     1  UNL1        0.2225
     33 O         139.6299  145.9879  160.7018 O.2     1  UNL1       -0.2751
     34 H         141.9246  143.5790  161.7414 H       1  UNL1        0.1494
     35 C         142.6413  145.2540  163.8807 C.3     1  UNL1        0.0230
     36 C         141.4330  145.2790  162.9923 C.3     1  UNL1        0.0894
@<TRIPOS>BOND
     1    35    36    1
     2    36    31    1
     3    31    32   am
     4    32    33    2
     5    32    30    1
     6    30    29    1
     7    25    29    1
     8    25    26    1
     9    26    27    1
    10    25    21    1
    11    21    22    1
    12    21    23   am
    13    23    24    2
    14    23     1    1
    15     1     2   ar
    16     2     3   ar
    17     3     4   ar
    18     4     5   ar
    19     5     6   ar
    20     5     7   ar
    21     7     8   ar
    22     8     9   ar
    23     9    10    1
    24     8    11    1
    25    11    12    1
    26    12    13    1
    27    13    15    1
    28    15    16    1
    29    16    17    1
    30    17    18    1
    31    18    19    1
    32    19    20    1
    33    13    14    1
    34     6     1   ar
    35    14     7    1
    36     9     4   ar
    37    20    15    1
    38    31    34    1
    39    27    28    1
@<TRIPOS>MOLECULE
*****
 36 39 0 0 0
SMALL
GASTEIGER

@<TRIPOS>ATOM
      1 C         142.2488  140.1085  159.9456 C.ar    1  UNL1        0.0537
      2 C         141.1795  139.4075  159.1614 C.ar    1  UNL1        0.0060
      3 C         139.9667  138.8698  159.8614 C.ar    1  UNL1        0.0173
      4 C         139.8232  139.0330  161.3455 C.ar    1  UNL1        0.0594
      5 C         140.8926  139.7340  162.1297 C.ar    1  UNL1        0.0130
      6 C         142.1054  140.2718  161.4298 C.ar    1  UNL1        0.0057
      7 C         140.4784  139.7451  163.5714 C.ar    1  UNL1       -0.0091
      8 C         139.1530  139.0509  163.6782 C.ar    1  UNL1        0.0331
      9 N         138.7481  138.6108  162.3025 N.ar    1  UNL1       -0.3289
     10 C         137.4891  137.8773  161.9463 C.3     1  UNL1        0.1301
     11 C         138.4861  138.9091  165.0142 C.3     1  UNL1        0.0435
     12 C         139.1445  139.4616  166.2435 C.3     1  UNL1        0.0066
     13 C         140.4699  140.1558  166.1367 C.3     1  UNL1        0.0049
     14 C         141.1368  140.2975  164.8007 C.3     1  UNL1        0.0275
     15 C         141.1284  140.7083  167.3661 C.3     1  UNL1        0.0053
     16 C         140.7436  142.0648  167.8776 C.3     1  UNL1        0.0322
     17 C         141.4021  142.6173  169.1069 C.3     1  UNL1        0.1422
     18 O         142.4453  141.8132  169.8247 O.3     1  UNL1       -0.3538
     19 C         142.8301  140.4566  169.3132 C.3     1  UNL1        0.1422
     20 C         142.1716  139.9041  168.0838 C.3     1  UNL1        0.0322
     21 N         143.6823  142.1273  159.1586 N.am    1  UNL1       -0.2735
     22 C         144.8951  142.6651  158.4586 C.3     1  UNL1        0.1152
     23 C         143.4617  140.6463  159.2457 C.2     1  UNL1        0.2491
     24 O         144.4538  139.7029  158.6328 O.2     1  UNL1       -0.2699
     25 C         142.6902  143.0708  159.7715 C.3     1  UNL1        0.1054
     26 C         142.9330  143.6276  161.1430 C.3     1  UNL1        0.1568
     27 O         142.4347  144.9979  161.4952 O.3     1  UNL1       -0.3802
     28 H         142.9064  145.6595  160.9655 H       1  UNL1        0.2105
     29 C         141.4552  143.4573  159.0130 C.3     1  UNL1        0.0319
     30 C         140.1341  142.8410  159.3666 C.3     1  UNL1        0.0868
     31 N         138.5262  142.3568  161.3490 N.am    1  UNL1       -0.3043
     32 C         139.3863  143.3137  160.5779 C.2     1  UNL1        0.2225
     33 O         139.4985  144.7432  161.0182 O.2     1  UNL1       -0.2751
     34 H         138.4525  141.4185  161.0600 H       1  UNL1        0.1494
     35 C         138.4283  142.7763  163.9111 C.3     1  UNL1        0.0230
     36 C         137.7783  142.8294  162.5604 C.3     1  UNL1        0.0894
@<TRIPOS>BOND
     1    35    36    1
     2    36    31    1
     3    31    32   am
     4    32    33    2
     5    32    30    1
     6    30    29    1
     7    25    29    1
     8    25    26    1
     9    26    27    1
    10    25    21    1
    11    21    22    1
    12    21    23   am
    13    23    24    2
    14    23     1    1
    15     1     2   ar
    16     2     3   ar
    17     3     4   ar
    18     4     5   ar
    19     5     6   ar
    20     5     7   ar
    21     7     8   ar
    22     8     9   ar
    23     9    10    1
    24     8    11    1
    25    11    12    1
    26    12    13    1
    27    13    15    1
    28    15    16    1
    29    16    17    1
    30    17    18    1
    31    18    19    1
    32    19    20    1
    33    13    14    1
    34     6     1   ar
    35    14     7    1
    36     9     4   ar
    37    20    15    1
    38    31    34    1
    39    27    28    1
@<TRIPOS>MOLECULE
*****
 36 39 0 0 0
SMALL
GASTEIGER

@<TRIPOS>ATOM
      1 C         140.5384  140.4087  160.1693 C.ar    1  UNL1        0.0537
      2 C         140.1013  141.6375  159.4284 C.ar    1  UNL1        0.0060
      3 C         139.7549  142.8858  160.1845 C.ar    1  UNL1        0.0173
      4 C         139.8457  142.9053  161.6816 C.ar    1  UNL1        0.0594
      5 C         140.2829  141.6766  162.4225 C.ar    1  UNL1        0.0130
      6 C         140.6292  140.4283  161.6664 C.ar    1  UNL1        0.0057
      7 C         140.2777  141.9930  163.8888 C.ar    1  UNL1       -0.0091
      8 C         139.8373  143.4173  164.0541 C.ar    1  UNL1        0.0331
      9 N         139.5704  143.9811  162.6899 N.ar    1  UNL1       -0.3289
     10 C         139.1090  145.3760  162.3873 C.3     1  UNL1        0.1301
     11 C         139.7363  144.0168  165.4252 C.3     1  UNL1        0.0435
     12 C         140.0757  143.1920  166.6313 C.3     1  UNL1        0.0066
     13 C         140.5161  141.7677  166.4661 C.3     1  UNL1        0.0049
     14 C         140.6171  141.1682  165.0948 C.3     1  UNL1        0.0275
     15 C         140.8555  140.9428  167.6721 C.3     1  UNL1        0.0053
     16 C         139.9067  140.8852  168.8324 C.3     1  UNL1        0.0322
     17 C         140.2460  140.0603  170.0385 C.3     1  UNL1        0.1422
     18 O         141.5343  139.2932  170.0841 O.3     1  UNL1       -0.3538
     19 C         142.4831  139.3509  168.9238 C.3     1  UNL1        0.1422
     20 C         142.1437  140.1757  167.7177 C.3     1  UNL1        0.0322
     21 N         142.3096  138.8839  159.0344 N.am    1  UNL1       -0.2735
     22 C         142.6559  137.6356  158.2783 C.3     1  UNL1        0.1152
     23 C         140.8848  139.1604  159.4131 C.2     1  UNL1        0.2491
     24 O         139.8063  138.1887  159.0356 O.2     1  UNL1       -0.2699
     25 C         143.3881  139.8556  159.4120 C.3     1  UNL1        0.1054
     26 C         144.1079  139.7065  160.7195 C.3     1  UNL1        0.1568
     27 O         144.5259  138.3466  161.1946 O.3     1  UNL1       -0.3802
     28 H         143.7378  137.8129  161.3814 H       1  UNL1        0.2105
     29 C         143.7468  140.9765  158.4820 C.3     1  UNL1        0.0319
     30 C         143.6676  142.3979  158.9548 C.3     1  UNL1        0.0868
     31 N         142.5184  144.6995  158.5925 N.am    1  UNL1       -0.3043
     32 C         143.1666  143.4686  158.0316 C.2     1  UNL1        0.2225
     33 O         143.3137  143.3084  156.5474 O.2     1  UNL1       -0.2751
     34 H         142.4219  144.8047  159.5666 H       1  UNL1        0.1494
     35 C         140.5481  145.8972  157.3952 C.3     1  UNL1        0.0230
     36 C         142.0173  145.7703  157.6692 C.3     1  UNL1        0.0894
@<TRIPOS>BOND
     1    35    36    1
     2    36    31    1
     3    31    32   am
     4    32    33    2
     5    32    30    1
     6    30    29    1
     7    25    29    1
     8    25    26    1
     9    26    27    1
    10    25    21    1
    11    21    22    1
    12    21    23   am
    13    23    24    2
    14    23     1    1
    15     1     2   ar
    16     2     3   ar
    17     3     4   ar
    18     4     5   ar
    19     5     6   ar
    20     5     7   ar
    21     7     8   ar
    22     8     9   ar
    23     9    10    1
    24     8    11    1
    25    11    12    1
    26    12    13    1
    27    13    15    1
    28    15    16    1
    29    16    17    1
    30    17    18    1
    31    18    19    1
    32    19    20    1
    33    13    14    1
    34     6     1   ar
    35    14     7    1
    36     9     4   ar
    37    20    15    1
    38    31    34    1
    39    27    28    1
@<TRIPOS>MOLECULE
*****
 36 39 0 0 0
SMALL
GASTEIGER

@<TRIPOS>ATOM
      1 C         140.6370  140.6521  159.5912 C.ar    1  UNL1        0.0537
      2 C         140.4952  141.8455  158.6937 C.ar    1  UNL1        0.0060
      3 C         140.2394  143.2010  159.2830 C.ar    1  UNL1        0.0173
      4 C         140.1254  143.3630  160.7699 C.ar    1  UNL1        0.0594
      5 C         140.2671  142.1695  161.6673 C.ar    1  UNL1        0.0130
      6 C         140.5229  140.8141  161.0780 C.ar    1  UNL1        0.0057
      7 C         140.1078  142.6339  163.0848 C.ar    1  UNL1       -0.0091
      8 C         139.8676  144.1144  163.0633 C.ar    1  UNL1        0.0331
      9 N         139.8785  144.5650  161.6326 N.ar    1  UNL1       -0.3289
     10 C         139.6777  145.9707  161.1494 C.3     1  UNL1        0.1301
     11 C         139.6700  144.8609  164.3491 C.3     1  UNL1        0.0435
     12 C         139.7126  144.1269  165.6566 C.3     1  UNL1        0.0066
     13 C         139.9528  142.6465  165.6781 C.3     1  UNL1        0.0049
     14 C         140.1504  141.9000  164.3922 C.3     1  UNL1        0.0275
     15 C         139.9954  141.9125  166.9856 C.3     1  UNL1        0.0053
     16 C         139.4723  140.5095  167.0756 C.3     1  UNL1        0.0322
     17 C         139.5149  139.7756  168.3830 C.3     1  UNL1        0.1422
     18 O         140.0807  140.4446  169.6006 O.3     1  UNL1       -0.3538
     19 C         140.6038  141.8476  169.5107 C.3     1  UNL1        0.1422
     20 C         140.5612  142.5815  168.2032 C.3     1  UNL1        0.0322
     21 N         142.2989  138.8490  158.7329 N.am    1  UNL1       -0.2735
     22 C         142.5547  137.4935  158.1435 C.3     1  UNL1        0.1152
     23 C         140.8928  139.2966  159.0018 C.2     1  UNL1        0.2491
     24 O         139.7425  138.3889  158.6814 O.2     1  UNL1       -0.2699
     25 C         143.4493  139.7568  159.0532 C.3     1  UNL1        0.1054
     26 C         144.0920  140.5655  157.9656 C.3     1  UNL1        0.1568
     27 O         145.1734  139.9604  157.1204 O.3     1  UNL1       -0.3802
     28 H         145.9517  139.7811  157.6708 H       1  UNL1        0.2105
     29 C         143.9569  139.8558  160.4612 C.3     1  UNL1        0.0319
     30 C         143.9592  138.6436  161.3447 C.3     1  UNL1        0.0868
     31 N         142.5375  138.4903  163.5138 N.am    1  UNL1       -0.3043
     32 C         143.8372  138.7990  162.8316 C.2     1  UNL1        0.2225
     33 O         145.0150  139.2632  163.6363 O.2     1  UNL1       -0.2751
     34 H         141.7646  138.1857  162.9857 H       1  UNL1        0.1494
     35 C         142.8633  139.9158  165.6614 C.3     1  UNL1        0.0230
     36 C         142.4155  138.6457  165.0008 C.3     1  UNL1        0.0894
@<TRIPOS>BOND
     1    35    36    1
     2    36    31    1
     3    31    32   am
     4    32    33    2
     5    32    30    1
     6    30    29    1
     7    25    29    1
     8    25    26    1
     9    26    27    1
    10    25    21    1
    11    21    22    1
    12    21    23   am
    13    23    24    2
    14    23     1    1
    15     1     2   ar
    16     2     3   ar
    17     3     4   ar
    18     4     5   ar
    19     5     6   ar
    20     5     7   ar
    21     7     8   ar
    22     8     9   ar
    23     9    10    1
    24     8    11    1
    25    11    12    1
    26    12    13    1
    27    13    15    1
    28    15    16    1
    29    16    17    1
    30    17    18    1
    31    18    19    1
    32    19    20    1
    33    13    14    1
    34     6     1   ar
    35    14     7    1
    36     9     4   ar
    37    20    15    1
    38    31    34    1
    39    27    28    1
