@<TRIPOS>MOLECULE
*****
 31 35 0 0 0
SMALL
GASTEIGER

@<TRIPOS>ATOM
      1 C         139.9073  139.5846  171.2929 C.ar    1  UNL1        0.2416
      2 N         140.6317  140.7822  171.8324 N.ar    1  UNL1       -0.1932
      3 C         141.5048  141.3264  170.7409 C.ar    1  UNL1        0.1667
      4 C         142.4442  142.4949  170.6957 C.ar    1  UNL1        0.0389
      5 C         143.1989  142.8021  169.4363 C.ar    1  UNL1        0.0047
      6 C         143.0142  141.9409  168.2222 C.ar    1  UNL1        0.0193
      7 C         142.0748  140.7724  168.2674 C.ar    1  UNL1        0.0845
      8 N         141.3201  140.4651  169.5268 N.ar    1  UNL1       -0.2095
      9 N         140.3328  139.3886  169.8680 N.ar    1  UNL1       -0.1280
     10 C         141.8901  139.9111  167.0533 C.ar    1  UNL1        0.0177
     11 C         143.0083  139.0292  166.5822 C.ar    1  UNL1        0.0012
     12 C         142.8236  138.1680  165.3681 C.ar    1  UNL1       -0.0029
     13 C         141.5208  138.1885  164.6251 C.ar    1  UNL1       -0.0061
     14 C         140.4026  139.0704  165.0962 C.ar    1  UNL1       -0.0029
     15 C         140.5873  139.9316  166.3103 C.ar    1  UNL1        0.0012
     16 C         141.3361  137.3272  163.4110 C.3     1  UNL1        0.0992
     17 N         141.7206  137.8467  162.0574 N.3     1  UNL1       -0.2659
     18 C         143.1679  137.9477  161.6761 C.3     1  UNL1        0.0980
     19 C         143.5524  138.4671  160.3225 C.3     1  UNL1        0.1681
     20 S         142.4898  138.8856  159.3501 S.O2    1  UNL1       -0.0072
     21 O         141.8529  139.4014  158.0938 O.2     1  UNL1       -0.1729
     22 O         143.7158  139.1657  158.5326 O.2     1  UNL1       -0.1729
     23 C         141.0426  138.7847  159.7313 C.3     1  UNL1        0.1681
     24 C         140.6580  138.2652  161.0850 C.3     1  UNL1        0.0980
     25 O         137.1267  139.2001  170.2344 O.2     1  UNL1       -0.2747
     26 C         137.5389  138.5403  171.5169 C.2     1  UNL1        0.2278
     27 N         138.9292  138.7326  172.0462 N.am    1  UNL1       -0.2528
     28 H         139.1997  138.2995  172.8879 H       1  UNL1        0.1578
     29 C         136.5608  137.6883  172.2701 C.3     1  UNL1        0.0769
     30 C         135.2178  137.5129  172.9146 C.3     1  UNL1        0.0096
     31 C         136.2098  136.3879  172.9302 C.3     1  UNL1        0.0096
@<TRIPOS>BOND
     1    25    26    2
     2    26    27   am
     3    27     1    1
     4     1     2   ar
     5     2     3   ar
     6     3     4   ar
     7     4     5   ar
     8     5     6   ar
     9     6     7   ar
    10     7    10    1
    11    10    11   ar
    12    11    12   ar
    13    12    13   ar
    14    13    16    1
    15    16    17    1
    16    17    18    1
    17    18    19    1
    18    19    20    1
    19    20    21    2
    20    20    22    2
    21    20    23    1
    22    23    24    1
    23    13    14   ar
    24    14    15   ar
    25     7     8   ar
    26     8     9   ar
    27    26    29    1
    28    29    30    1
    29    30    31    1
    30     9     1   ar
    31    31    29    1
    32     8     3   ar
    33    15    10   ar
    34    24    17    1
    35    27    28    1
@<TRIPOS>MOLECULE
*****
 31 35 0 0 0
SMALL
GASTEIGER

@<TRIPOS>ATOM
      1 C         139.3947  142.8792  171.2272 C.ar    1  UNL1        0.2416
      2 N         140.5824  142.2428  171.8863 N.ar    1  UNL1       -0.1932
      3 C         141.2164  141.3095  170.8978 C.ar    1  UNL1        0.1667
      4 C         142.4155  140.4132  170.9901 C.ar    1  UNL1        0.0389
      5 C         142.8188  139.5765  169.8123 C.ar    1  UNL1        0.0047
      6 C         142.0230  139.6361  168.5422 C.ar    1  UNL1        0.0193
      7 C         140.8238  140.5325  168.4499 C.ar    1  UNL1        0.0845
      8 N         140.4205  141.3692  169.6277 N.ar    1  UNL1       -0.2095
      9 N         139.2947  142.3392  169.8313 N.ar    1  UNL1       -0.1280
     10 C         140.0280  140.5921  167.1798 C.ar    1  UNL1        0.0177
     11 C         140.2740  141.6934  166.1916 C.ar    1  UNL1        0.0012
     12 C         139.4781  141.7530  164.9216 C.ar    1  UNL1       -0.0029
     13 C         138.4363  140.7114  164.6397 C.ar    1  UNL1       -0.0061
     14 C         138.1903  139.6100  165.6279 C.ar    1  UNL1       -0.0029
     15 C         138.9862  139.5504  166.8980 C.ar    1  UNL1        0.0012
     16 C         137.6405  140.7710  163.3696 C.3     1  UNL1        0.0992
     17 N         138.2088  140.2070  162.1013 N.3     1  UNL1       -0.2659
     18 C         137.5893  140.5576  160.7808 C.3     1  UNL1        0.0980
     19 C         138.1577  139.9935  159.5124 C.3     1  UNL1        0.1681
     20 S         139.3454  139.0789  159.5644 S.O2    1  UNL1       -0.0072
     21 O         140.4515  138.1774  159.1020 O.2     1  UNL1       -0.1729
     22 O         139.1101  139.1164  158.0834 O.2     1  UNL1       -0.1729
     23 C         139.9649  138.7283  160.8847 C.3     1  UNL1        0.1681
     24 C         139.3966  139.2924  162.1532 C.3     1  UNL1        0.0980
     25 O         139.6839  145.7959  170.5876 O.2     1  UNL1       -0.2747
     26 C         138.6141  145.3381  171.5341 C.2     1  UNL1        0.2278
     27 N         138.4695  143.8797  171.8539 N.am    1  UNL1       -0.2528
     28 H         137.7673  143.5793  172.4751 H       1  UNL1        0.1578
     29 C         137.6889  146.3387  172.1608 C.3     1  UNL1        0.0769
     30 C         136.3305  146.7036  172.6819 C.3     1  UNL1        0.0096
     31 C         137.4448  147.7068  172.7253 C.3     1  UNL1        0.0096
@<TRIPOS>BOND
     1    25    26    2
     2    26    27   am
     3    27     1    1
     4     1     2   ar
     5     2     3   ar
     6     3     4   ar
     7     4     5   ar
     8     5     6   ar
     9     6     7   ar
    10     7    10    1
    11    10    11   ar
    12    11    12   ar
    13    12    13   ar
    14    13    16    1
    15    16    17    1
    16    17    18    1
    17    18    19    1
    18    19    20    1
    19    20    21    2
    20    20    22    2
    21    20    23    1
    22    23    24    1
    23    13    14   ar
    24    14    15   ar
    25     7     8   ar
    26     8     9   ar
    27    26    29    1
    28    29    30    1
    29    30    31    1
    30     9     1   ar
    31    31    29    1
    32     8     3   ar
    33    15    10   ar
    34    24    17    1
    35    27    28    1
@<TRIPOS>MOLECULE
*****
 31 35 0 0 0
SMALL
GASTEIGER

@<TRIPOS>ATOM
      1 C         139.4115  143.0415  171.1809 C.ar    1  UNL1        0.2416
      2 N         140.4169  142.1694  171.8727 N.ar    1  UNL1       -0.1932
      3 C         141.1559  141.3921  170.8241 C.ar    1  UNL1        0.1667
      4 C         142.2575  140.3783  170.9162 C.ar    1  UNL1        0.0389
      5 C         142.8104  139.7561  169.6684 C.ar    1  UNL1        0.0047
      6 C         142.2618  140.1478  168.3284 C.ar    1  UNL1        0.0193
      7 C         141.1602  141.1616  168.2363 C.ar    1  UNL1        0.0845
      8 N         140.6072  141.7838  169.4841 N.ar    1  UNL1       -0.2095
      9 N         139.5292  142.8032  169.7047 N.ar    1  UNL1       -0.1280
     10 C         140.6115  141.5533  166.8963 C.ar    1  UNL1        0.0177
     11 C         139.5979  140.6810  166.2168 C.ar    1  UNL1        0.0012
     12 C         139.0493  141.0727  164.8768 C.ar    1  UNL1       -0.0029
     13 C         139.5141  142.3367  164.2163 C.ar    1  UNL1       -0.0061
     14 C         140.5276  143.2090  164.8959 C.ar    1  UNL1       -0.0029
     15 C         141.0763  142.8173  166.2359 C.ar    1  UNL1        0.0012
     16 C         138.9654  142.7284  162.8764 C.3     1  UNL1        0.0992
     17 N         139.8778  143.2935  161.8284 N.3     1  UNL1       -0.2659
     18 C         139.6900  144.7033  161.3517 C.3     1  UNL1        0.0980
     19 C         140.6023  145.2685  160.3038 C.3     1  UNL1        0.1681
     20 S         141.7024  144.4239  159.7325 S.O2    1  UNL1       -0.0072
     21 O         142.8792  144.0202  158.8946 O.2     1  UNL1       -0.1729
     22 O         141.9233  145.6935  158.9648 O.2     1  UNL1       -0.1729
     23 C         141.8902  143.0141  160.2092 C.3     1  UNL1        0.1681
     24 C         140.9779  142.4489  161.2572 C.3     1  UNL1        0.0980
     25 O         139.6177  145.9910  170.6728 O.2     1  UNL1       -0.2747
     26 C         138.5593  145.4608  171.5941 C.2     1  UNL1        0.2278
     27 N         138.4563  143.9861  171.8482 N.am    1  UNL1       -0.2528
     28 H         137.7616  143.6381  172.4529 H       1  UNL1        0.1578
     29 C         137.6040  146.4054  172.2614 C.3     1  UNL1        0.0769
     30 C         137.3230  147.7339  172.8986 C.3     1  UNL1        0.0096
     31 C         136.2305  146.7129  172.7799 C.3     1  UNL1        0.0096
@<TRIPOS>BOND
     1    25    26    2
     2    26    27   am
     3    27     1    1
     4     1     2   ar
     5     2     3   ar
     6     3     4   ar
     7     4     5   ar
     8     5     6   ar
     9     6     7   ar
    10     7    10    1
    11    10    11   ar
    12    11    12   ar
    13    12    13   ar
    14    13    16    1
    15    16    17    1
    16    17    18    1
    17    18    19    1
    18    19    20    1
    19    20    21    2
    20    20    22    2
    21    20    23    1
    22    23    24    1
    23    13    14   ar
    24    14    15   ar
    25     7     8   ar
    26     8     9   ar
    27    26    29    1
    28    29    30    1
    29    30    31    1
    30     9     1   ar
    31    31    29    1
    32     8     3   ar
    33    15    10   ar
    34    24    17    1
    35    27    28    1
@<TRIPOS>MOLECULE
*****
 31 35 0 0 0
SMALL
GASTEIGER

@<TRIPOS>ATOM
      1 C         142.9625  138.3275  158.6621 C.ar    1  UNL1        0.2416
      2 N         143.4883  139.4794  157.8581 N.ar    1  UNL1       -0.1932
      3 C         143.8986  140.5617  158.8122 C.ar    1  UNL1        0.1667
      4 C         144.4849  141.9247  158.5920 C.ar    1  UNL1        0.0389
      5 C         144.7990  142.8045  159.7655 C.ar    1  UNL1        0.0047
      6 C         144.5267  142.3214  161.1593 C.ar    1  UNL1        0.0193
      7 C         143.9404  140.9585  161.3795 C.ar    1  UNL1        0.0845
      8 N         143.6263  140.0786  160.2060 N.ar    1  UNL1       -0.2095
      9 N         143.0478  138.6978  160.1132 N.ar    1  UNL1       -0.1280
     10 C         143.6681  140.4754  162.7732 C.ar    1  UNL1        0.0177
     11 C         142.2777  140.5422  163.3320 C.ar    1  UNL1        0.0012
     12 C         142.0055  140.0591  164.7257 C.ar    1  UNL1       -0.0029
     13 C         143.1236  139.5092  165.5607 C.ar    1  UNL1       -0.0061
     14 C         144.5140  139.4423  165.0019 C.ar    1  UNL1       -0.0029
     15 C         144.7863  139.9254  163.6082 C.ar    1  UNL1        0.0012
     16 C         142.8513  139.0261  166.9544 C.3     1  UNL1        0.0992
     17 N         142.6283  140.0143  168.0606 N.3     1  UNL1       -0.2659
     18 C         142.8948  141.4722  167.8289 C.3     1  UNL1        0.0980
     19 C         142.6717  142.4604  168.9351 C.3     1  UNL1        0.1681
     20 S         142.1821  141.9909  170.2729 S.O2    1  UNL1       -0.0072
     21 O         141.7306  142.0326  171.7027 O.2     1  UNL1       -0.1729
     22 O         142.2919  143.4632  170.5378 O.2     1  UNL1       -0.1729
     23 C         141.9155  140.5331  170.5046 C.3     1  UNL1        0.1681
     24 C         142.1386  139.5447  169.3984 C.3     1  UNL1        0.0980
     25 O         144.1722  137.1605  156.1772 O.2     1  UNL1       -0.2747
     26 C         143.0474  136.4490  156.8693 C.2     1  UNL1        0.2278
     27 N         142.4426  137.0326  158.1117 N.am    1  UNL1       -0.2528
     28 H         141.7044  136.5656  158.5660 H       1  UNL1        0.1578
     29 C         142.5275  135.1541  156.3189 C.3     1  UNL1        0.0769
     30 C         141.5877  134.4099  155.4174 C.3     1  UNL1        0.0096
     31 C         142.5670  133.6556  156.2671 C.3     1  UNL1        0.0096
@<TRIPOS>BOND
     1    25    26    2
     2    26    27   am
     3    27     1    1
     4     1     2   ar
     5     2     3   ar
     6     3     4   ar
     7     4     5   ar
     8     5     6   ar
     9     6     7   ar
    10     7    10    1
    11    10    11   ar
    12    11    12   ar
    13    12    13   ar
    14    13    16    1
    15    16    17    1
    16    17    18    1
    17    18    19    1
    18    19    20    1
    19    20    21    2
    20    20    22    2
    21    20    23    1
    22    23    24    1
    23    13    14   ar
    24    14    15   ar
    25     7     8   ar
    26     8     9   ar
    27    26    29    1
    28    29    30    1
    29    30    31    1
    30     9     1   ar
    31    31    29    1
    32     8     3   ar
    33    15    10   ar
    34    24    17    1
    35    27    28    1
@<TRIPOS>MOLECULE
*****
 31 35 0 0 0
SMALL
GASTEIGER

@<TRIPOS>ATOM
      1 C         143.2593  143.6374  158.9943 C.ar    1  UNL1        0.2416
      2 N         142.2433  144.6457  158.5459 N.ar    1  UNL1       -0.1932
      3 C         141.4160  145.0311  159.7363 C.ar    1  UNL1        0.1667
      4 C         140.2683  145.9838  159.8949 C.ar    1  UNL1        0.0389
      5 C         139.6253  146.1664  161.2377 C.ar    1  UNL1        0.0047
      6 C         140.1300  145.3963  162.4219 C.ar    1  UNL1        0.0193
      7 C         141.2777  144.4436  162.2632 C.ar    1  UNL1        0.0845
      8 N         141.9206  144.2610  160.9204 N.ar    1  UNL1       -0.2095
      9 N         143.0599  143.3997  160.4619 N.ar    1  UNL1       -0.1280
     10 C         141.7823  143.6735  163.4474 C.ar    1  UNL1        0.0177
     11 C         143.1387  143.9725  164.0138 C.ar    1  UNL1        0.0012
     12 C         143.6434  143.2024  165.1980 C.ar    1  UNL1       -0.0029
     13 C         142.7917  142.1333  165.8157 C.ar    1  UNL1       -0.0061
     14 C         141.4353  141.8343  165.2493 C.ar    1  UNL1       -0.0029
     15 C         140.9307  142.6044  164.0652 C.ar    1  UNL1        0.0012
     16 C         143.2964  141.3632  166.9999 C.3     1  UNL1        0.0992
     17 N         142.4939  141.3243  168.2666 N.3     1  UNL1       -0.2659
     18 C         142.4850  142.5098  169.1856 C.3     1  UNL1        0.0980
     19 C         141.6826  142.4709  170.4522 C.3     1  UNL1        0.1681
     20 S         140.8891  141.2464  170.8000 S.O2    1  UNL1       -0.0072
     21 O         139.9832  140.3222  171.5584 O.2     1  UNL1       -0.1729
     22 O         140.5656  142.1110  171.9823 O.2     1  UNL1       -0.1729
     23 C         140.8980  140.0609  169.8812 C.3     1  UNL1        0.1681
     24 C         141.7004  140.0998  168.6144 C.3     1  UNL1        0.0980
     25 O         142.4804  141.3832  157.1744 O.2     1  UNL1       -0.2747
     26 C         143.9037  141.8549  157.2175 C.2     1  UNL1        0.2278
     27 N         144.2931  142.9819  158.1274 N.am    1  UNL1       -0.2528
     28 H         145.2273  143.2915  158.1557 H       1  UNL1        0.1578
     29 C         144.9376  141.1994  156.3506 C.3     1  UNL1        0.0769
     30 C         146.2509  141.2539  155.6279 C.3     1  UNL1        0.0096
     31 C         145.4150  140.0096  155.5719 C.3     1  UNL1        0.0096
@<TRIPOS>BOND
     1    25    26    2
     2    26    27   am
     3    27     1    1
     4     1     2   ar
     5     2     3   ar
     6     3     4   ar
     7     4     5   ar
     8     5     6   ar
     9     6     7   ar
    10     7    10    1
    11    10    11   ar
    12    11    12   ar
    13    12    13   ar
    14    13    16    1
    15    16    17    1
    16    17    18    1
    17    18    19    1
    18    19    20    1
    19    20    21    2
    20    20    22    2
    21    20    23    1
    22    23    24    1
    23    13    14   ar
    24    14    15   ar
    25     7     8   ar
    26     8     9   ar
    27    26    29    1
    28    29    30    1
    29    30    31    1
    30     9     1   ar
    31    31    29    1
    32     8     3   ar
    33    15    10   ar
    34    24    17    1
    35    27    28    1
@<TRIPOS>MOLECULE
*****
 31 35 0 0 0
SMALL
GASTEIGER

@<TRIPOS>ATOM
      1 C         142.5183  131.7703  156.0107 C.ar    1  UNL1        0.2416
      2 N         142.4558  131.6481  154.5170 N.ar    1  UNL1       -0.1932
      3 C         142.1196  132.9977  153.9552 C.ar    1  UNL1        0.1667
      4 C         141.9271  133.4793  152.5478 C.ar    1  UNL1        0.0389
      5 C         141.5891  134.9172  152.2868 C.ar    1  UNL1        0.0047
      6 C         141.4437  135.8735  153.4333 C.ar    1  UNL1        0.0193
      7 C         141.6363  135.3918  154.8407 C.ar    1  UNL1        0.0845
      8 N         141.9742  133.9539  155.1017 N.ar    1  UNL1       -0.2095
      9 N         142.2206  133.1953  156.3720 N.ar    1  UNL1       -0.1280
     10 C         141.4909  136.3481  155.9872 C.ar    1  UNL1        0.0177
     11 C         140.1609  136.9801  156.2727 C.ar    1  UNL1        0.0012
     12 C         140.0155  137.9363  157.4192 C.ar    1  UNL1       -0.0029
     13 C         141.2001  138.2606  158.2802 C.ar    1  UNL1       -0.0061
     14 C         142.5301  137.6286  157.9947 C.ar    1  UNL1       -0.0029
     15 C         142.6755  136.6723  156.8483 C.ar    1  UNL1        0.0012
     16 C         141.0547  139.2169  159.4267 C.3     1  UNL1        0.0992
     17 N         140.7277  138.7011  160.7967 N.3     1  UNL1       -0.2659
     18 C         141.8138  138.1393  161.6656 C.3     1  UNL1        0.0980
     19 C         141.4868  137.6235  163.0356 C.3     1  UNL1        0.1681
     20 S         140.0738  137.6694  163.5368 S.O2    1  UNL1       -0.0072
     21 O         138.8959  137.4998  164.4498 O.2     1  UNL1       -0.1729
     22 O         140.7508  137.0488  164.7227 O.2     1  UNL1       -0.1729
     23 C         138.9877  138.2311  162.6680 C.3     1  UNL1        0.1681
     24 C         139.3147  138.7470  161.2979 C.3     1  UNL1        0.0980
     25 O         145.2093  131.6298  157.3293 O.2     1  UNL1       -0.2747
     26 C         144.1700  130.5917  157.6333 C.2     1  UNL1        0.2278
     27 N         142.8245  130.6620  156.9740 N.am    1  UNL1       -0.2528
     28 H         142.1425  129.9806  157.1735 H       1  UNL1        0.1578
     29 C         144.4763  129.4834  158.5965 C.3     1  UNL1        0.0769
     30 C         145.4456  128.4949  159.1738 C.3     1  UNL1        0.0096
     31 C         144.0375  128.5524  159.6876 C.3     1  UNL1        0.0096
@<TRIPOS>BOND
     1    25    26    2
     2    26    27   am
     3    27     1    1
     4     1     2   ar
     5     2     3   ar
     6     3     4   ar
     7     4     5   ar
     8     5     6   ar
     9     6     7   ar
    10     7    10    1
    11    10    11   ar
    12    11    12   ar
    13    12    13   ar
    14    13    16    1
    15    16    17    1
    16    17    18    1
    17    18    19    1
    18    19    20    1
    19    20    21    2
    20    20    22    2
    21    20    23    1
    22    23    24    1
    23    13    14   ar
    24    14    15   ar
    25     7     8   ar
    26     8     9   ar
    27    26    29    1
    28    29    30    1
    29    30    31    1
    30     9     1   ar
    31    31    29    1
    32     8     3   ar
    33    15    10   ar
    34    24    17    1
    35    27    28    1
@<TRIPOS>MOLECULE
*****
 31 35 0 0 0
SMALL
GASTEIGER

@<TRIPOS>ATOM
      1 C         142.9207  142.5579  158.5583 C.ar    1  UNL1        0.2416
      2 N         141.6342  142.2834  157.8374 N.ar    1  UNL1       -0.1932
      3 C         140.5849  141.9733  158.8635 C.ar    1  UNL1        0.1667
      4 C         139.1310  141.6261  158.7390 C.ar    1  UNL1        0.0389
      5 C         138.3150  141.3619  159.9695 C.ar    1  UNL1        0.0047
      6 C         138.9529  141.4448  161.3246 C.ar    1  UNL1        0.0193
      7 C         140.4069  141.7919  161.4491 C.ar    1  UNL1        0.0845
      8 N         141.2229  142.0561  160.2185 N.ar    1  UNL1       -0.2095
      9 N         142.6664  142.4174  160.0299 N.ar    1  UNL1       -0.1280
     10 C         141.0448  141.8747  162.8041 C.ar    1  UNL1        0.0177
     11 C         142.0201  140.8216  163.2396 C.ar    1  UNL1        0.0012
     12 C         142.6580  140.9044  164.5947 C.ar    1  UNL1       -0.0029
     13 C         142.3207  142.0405  165.5142 C.ar    1  UNL1       -0.0061
     14 C         141.3455  143.0937  165.0787 C.ar    1  UNL1       -0.0029
     15 C         140.7075  143.0108  163.7237 C.ar    1  UNL1        0.0012
     16 C         142.9587  142.1234  166.8693 C.3     1  UNL1        0.0992
     17 N         142.2034  141.6688  168.0829 N.3     1  UNL1       -0.2659
     18 C         142.5421  142.2317  169.4314 C.3     1  UNL1        0.0980
     19 C         141.7868  141.7771  170.6451 C.3     1  UNL1        0.1681
     20 S         140.6928  140.7598  170.5102 S.O2    1  UNL1       -0.0072
     21 O         139.5826  139.8252  170.8894 O.2     1  UNL1       -0.1729
     22 O         140.6459  140.9980  171.9904 O.2     1  UNL1       -0.1729
     23 C         140.3541  140.1969  169.1617 C.3     1  UNL1        0.1681
     24 C         141.1094  140.6515  167.9480 C.3     1  UNL1        0.0980
     25 O         144.7408  140.3873  157.5705 O.2     1  UNL1       -0.2747
     26 C         145.1413  141.8256  157.4258 C.2     1  UNL1        0.2278
     27 N         144.2312  142.9109  157.9197 N.am    1  UNL1       -0.2528
     28 H         144.4941  143.8549  157.8247 H       1  UNL1        0.1578
     29 C         146.4519  142.1786  156.7872 C.3     1  UNL1        0.0769
     30 C         147.7762  142.8807  156.8420 C.3     1  UNL1        0.0096
     31 C         147.3974  142.0879  155.6263 C.3     1  UNL1        0.0096
@<TRIPOS>BOND
     1    25    26    2
     2    26    27   am
     3    27     1    1
     4     1     2   ar
     5     2     3   ar
     6     3     4   ar
     7     4     5   ar
     8     5     6   ar
     9     6     7   ar
    10     7    10    1
    11    10    11   ar
    12    11    12   ar
    13    12    13   ar
    14    13    16    1
    15    16    17    1
    16    17    18    1
    17    18    19    1
    18    19    20    1
    19    20    21    2
    20    20    22    2
    21    20    23    1
    22    23    24    1
    23    13    14   ar
    24    14    15   ar
    25     7     8   ar
    26     8     9   ar
    27    26    29    1
    28    29    30    1
    29    30    31    1
    30     9     1   ar
    31    31    29    1
    32     8     3   ar
    33    15    10   ar
    34    24    17    1
    35    27    28    1
@<TRIPOS>MOLECULE
*****
 31 35 0 0 0
SMALL
GASTEIGER

@<TRIPOS>ATOM
      1 C         143.2740  134.7148  156.2834 C.ar    1  UNL1        0.2416
      2 N         144.1710  135.4559  155.3367 N.ar    1  UNL1       -0.1932
      3 C         144.0673  136.9193  155.6497 C.ar    1  UNL1        0.1667
      4 C         144.7239  138.1242  155.0438 C.ar    1  UNL1        0.0389
      5 C         144.4194  139.4923  155.5780 C.ar    1  UNL1        0.0047
      6 C         143.4583  139.6555  156.7181 C.ar    1  UNL1        0.0193
      7 C         142.8018  138.4506  157.3239 C.ar    1  UNL1        0.0845
      8 N         143.1063  137.0825  156.7897 N.ar    1  UNL1       -0.2095
      9 N         142.6160  135.7200  157.1814 N.ar    1  UNL1       -0.1280
     10 C         141.8407  138.6139  158.4640 C.ar    1  UNL1        0.0177
     11 C         142.3559  138.7383  159.8672 C.ar    1  UNL1        0.0012
     12 C         141.3948  138.9016  161.0073 C.ar    1  UNL1       -0.0029
     13 C         139.9186  138.9404  160.7441 C.ar    1  UNL1       -0.0061
     14 C         139.4035  138.8159  159.3409 C.ar    1  UNL1       -0.0029
     15 C         140.3645  138.6527  158.2008 C.ar    1  UNL1        0.0012
     16 C         138.9576  139.1036  161.8842 C.3     1  UNL1        0.0992
     17 N         138.5922  140.4761  162.3664 N.3     1  UNL1       -0.2659
     18 C         138.4188  140.7341  163.8339 C.3     1  UNL1        0.0980
     19 C         138.0534  142.1066  164.3161 C.3     1  UNL1        0.1681
     20 S         137.8613  143.2213  163.3309 S.O2    1  UNL1       -0.0072
     21 O         137.5745  144.5906  162.7901 O.2     1  UNL1       -0.1729
     22 O         137.5884  143.9547  164.6106 O.2     1  UNL1       -0.1729
     23 C         138.0347  142.9634  161.8635 C.3     1  UNL1        0.1681
     24 C         138.4001  141.5908  161.3812 C.3     1  UNL1        0.0980
     25 O         144.9590  133.0202  158.0970 O.2     1  UNL1       -0.2747
     26 C         143.9132  132.3819  157.2315 C.2     1  UNL1        0.2278
     27 N         143.0708  133.2292  156.3247 N.am    1  UNL1       -0.2528
     28 H         142.3844  132.8102  155.7567 H       1  UNL1        0.1578
     29 C         143.7099  130.8963  157.2729 C.3     1  UNL1        0.0769
     30 C         143.1588  129.6430  156.6601 C.3     1  UNL1        0.0096
     31 C         143.9090  129.5765  157.9574 C.3     1  UNL1        0.0096
@<TRIPOS>BOND
     1    25    26    2
     2    26    27   am
     3    27     1    1
     4     1     2   ar
     5     2     3   ar
     6     3     4   ar
     7     4     5   ar
     8     5     6   ar
     9     6     7   ar
    10     7    10    1
    11    10    11   ar
    12    11    12   ar
    13    12    13   ar
    14    13    16    1
    15    16    17    1
    16    17    18    1
    17    18    19    1
    18    19    20    1
    19    20    21    2
    20    20    22    2
    21    20    23    1
    22    23    24    1
    23    13    14   ar
    24    14    15   ar
    25     7     8   ar
    26     8     9   ar
    27    26    29    1
    28    29    30    1
    29    30    31    1
    30     9     1   ar
    31    31    29    1
    32     8     3   ar
    33    15    10   ar
    34    24    17    1
    35    27    28    1
@<TRIPOS>MOLECULE
*****
 31 35 0 0 0
SMALL
GASTEIGER

@<TRIPOS>ATOM
      1 C         139.9680  144.0145  160.0520 C.ar    1  UNL1        0.2416
      2 N         141.1938  144.7776  159.6457 N.ar    1  UNL1       -0.1932
      3 C         141.2267  144.8382  158.1473 C.ar    1  UNL1        0.1667
      4 C         142.1987  145.4604  157.1891 C.ar    1  UNL1        0.0389
      5 C         141.9651  145.3569  155.7111 C.ar    1  UNL1        0.0047
      6 C         140.7596  144.6312  155.1912 C.ar    1  UNL1        0.0193
      7 C         139.7877  144.0091  156.1494 C.ar    1  UNL1        0.0845
      8 N         140.0213  144.1125  157.6275 N.ar    1  UNL1       -0.2095
      9 N         139.2433  143.6035  158.8046 N.ar    1  UNL1       -0.1280
     10 C         138.5822  143.2834  155.6296 C.ar    1  UNL1        0.0177
     11 C         137.5811  144.0062  154.7781 C.ar    1  UNL1        0.0012
     12 C         136.3756  143.2806  154.2582 C.ar    1  UNL1       -0.0029
     13 C         136.1713  141.8321  154.5898 C.ar    1  UNL1       -0.0061
     14 C         137.1725  141.1092  155.4413 C.ar    1  UNL1       -0.0029
     15 C         138.3779  141.8349  155.9612 C.ar    1  UNL1        0.0012
     16 C         134.9658  141.1064  154.0700 C.3     1  UNL1        0.0992
     17 N         133.9242  140.6027  155.0245 N.3     1  UNL1       -0.2659
     18 C         134.1591  139.3343  155.7901 C.3     1  UNL1        0.0980
     19 C         133.1174  138.8305  156.7446 C.3     1  UNL1        0.1681
     20 S         131.8408  139.5951  156.9336 S.O2    1  UNL1       -0.0072
     21 O         130.4820  139.9637  157.4509 O.2     1  UNL1       -0.1729
     22 O         131.6039  138.4548  157.8788 O.2     1  UNL1       -0.1729
     23 C         131.6059  140.8635  156.1681 C.3     1  UNL1        0.1681
     24 C         132.6476  141.3673  155.2135 C.3     1  UNL1        0.0980
     25 O         138.9995  146.2287  161.8295 O.2     1  UNL1       -0.2747
     26 C         139.0574  144.8220  162.3473 C.2     1  UNL1        0.2278
     27 N         139.5416  143.7150  161.4586 N.am    1  UNL1       -0.2528
     28 H         139.5797  142.7918  161.7985 H       1  UNL1        0.1578
     29 C         138.6311  144.5226  163.7540 C.3     1  UNL1        0.0769
     30 C         137.8431  143.6928  164.7237 C.3     1  UNL1        0.0096
     31 C         138.6808  144.8336  165.2205 C.3     1  UNL1        0.0096
@<TRIPOS>BOND
     1    25    26    2
     2    26    27   am
     3    27     1    1
     4     1     2   ar
     5     2     3   ar
     6     3     4   ar
     7     4     5   ar
     8     5     6   ar
     9     6     7   ar
    10     7    10    1
    11    10    11   ar
    12    11    12   ar
    13    12    13   ar
    14    13    16    1
    15    16    17    1
    16    17    18    1
    17    18    19    1
    18    19    20    1
    19    20    21    2
    20    20    22    2
    21    20    23    1
    22    23    24    1
    23    13    14   ar
    24    14    15   ar
    25     7     8   ar
    26     8     9   ar
    27    26    29    1
    28    29    30    1
    29    30    31    1
    30     9     1   ar
    31    31    29    1
    32     8     3   ar
    33    15    10   ar
    34    24    17    1
    35    27    28    1
