@<TRIPOS>MOLECULE
*****
 33 37 0 0 0
SMALL
GASTEIGER

@<TRIPOS>ATOM
      1 C         142.0015  137.6036  156.7482 C.3     1  UNL1        0.2126
      2 C         140.8258  138.0271  157.5780 C.3     1  UNL1        0.1448
      3 N         141.3405  138.4901  158.9087 N.am    1  UNL1       -0.2435
      4 C         142.8342  138.3528  158.9014 C.2     1  UNL1        0.4052
      5 O         143.7573  138.7021  160.0309 O.2     1  UNL1       -0.2262
      6 O         143.2427  137.8049  157.5661 O.3     1  UNL1       -0.4319
      7 C         142.3829  133.1824  156.0016 C.ar    1  UNL1        0.1388
      8 C         142.3271  132.6510  154.6001 C.ar    1  UNL1        0.0384
      9 C         142.1441  133.5932  153.4474 C.ar    1  UNL1        0.0222
     10 C         142.0170  135.0669  153.6962 C.ar    1  UNL1        0.0813
     11 N         141.8340  136.0092  152.5435 N.ar    1  UNL1       -0.2439
     12 C         141.7069  137.4829  152.7924 C.ar    1  UNL1        0.0986
     13 C         141.7627  138.0144  154.1940 C.ar    1  UNL1        0.0199
     14 C         141.9456  137.0722  155.3467 C.ar    1  UNL1        0.0222
     15 C         142.0728  135.5984  155.0978 C.ar    1  UNL1        0.0201
     16 C         142.2557  134.6561  156.2505 C.ar    1  UNL1        0.0382
     17 C         143.5244  131.0922  157.0397 C.3     1  UNL1        0.2525
     18 O         142.5658  132.2402  157.1543 O.3     1  UNL1       -0.4714
     19 C         140.5076  139.0008  160.0470 C.3     1  UNL1        0.0815
     20 C         139.6333  138.0576  160.8188 C.3     1  UNL1        0.0373
     21 C         138.8004  138.5682  161.9571 C.3     1  UNL1        0.0741
     22 N         138.8419  140.0222  162.3235 N.3     1  UNL1       -0.2689
     23 C         139.7163  140.9655  161.5516 C.3     1  UNL1        0.0741
     24 C         140.5491  140.4548  160.4134 C.3     1  UNL1        0.0373
     25 C         138.0091  140.5329  163.4617 C.3     1  UNL1        0.0991
     26 C         138.5212  140.4358  164.8683 C.ar    1  UNL1       -0.0065
     27 C         138.0898  139.2990  165.7467 C.ar    1  UNL1       -0.0033
     28 C         138.6020  139.2019  167.1532 C.ar    1  UNL1       -0.0048
     29 C         139.5455  140.2416  167.6813 C.ar    1  UNL1       -0.0258
     30 C         140.0576  140.1446  169.0878 C.3     1  UNL1        0.0307
     31 C         139.9768  141.3784  166.8028 C.ar    1  UNL1       -0.0261
     32 C         140.9203  142.4181  167.3309 C.3     1  UNL1        0.0307
     33 C         139.4647  141.4755  165.3963 C.ar    1  UNL1       -0.0075
@<TRIPOS>BOND
     1    17    18    1
     2    18     7    1
     3     7     8   ar
     4     8     9   ar
     5     9    10   ar
     6    10    11   ar
     7    11    12   ar
     8    12    13   ar
     9    13    14   ar
    10    14     1    1
    11     1     2    1
    12     2     3    1
    13     3    19    1
    14    19    20    1
    15    20    21    1
    16    21    22    1
    17    22    25    1
    18    25    26    1
    19    26    27   ar
    20    27    28   ar
    21    28    29   ar
    22    29    30    1
    23    29    31   ar
    24    31    32    1
    25    31    33   ar
    26    22    23    1
    27    23    24    1
    28     3     4   am
    29     4     5    2
    30     4     6    1
    31    14    15   ar
    32    15    16   ar
    33    16     7   ar
    34    15    10   ar
    35     6     1    1
    36    24    19    1
    37    33    26   ar
@<TRIPOS>MOLECULE
*****
 33 37 0 0 0
SMALL
GASTEIGER

@<TRIPOS>ATOM
      1 C         139.5455  140.0559  163.7354 C.3     1  UNL1        0.2126
      2 C         140.1572  139.0643  162.7907 C.3     1  UNL1        0.1448
      3 N         140.1816  139.6807  161.4234 N.am    1  UNL1       -0.2435
      4 C         139.5849  141.0534  161.5231 C.2     1  UNL1        0.4052
      5 O         139.4118  142.0237  160.3924 O.2     1  UNL1       -0.2262
      6 O         139.1918  141.2852  162.9519 O.3     1  UNL1       -0.4319
      7 C         142.4119  141.8477  166.7057 C.ar    1  UNL1        0.1388
      8 C         142.1924  141.6455  168.1756 C.ar    1  UNL1        0.0384
      9 C         141.0174  140.8461  168.6556 C.ar    1  UNL1        0.0222
     10 C         140.0620  140.2488  167.6655 C.ar    1  UNL1        0.0813
     11 N         138.8870  139.4494  168.1454 N.ar    1  UNL1       -0.2439
     12 C         137.9315  138.8522  167.1553 C.ar    1  UNL1        0.0986
     13 C         138.1510  139.0543  165.6853 C.ar    1  UNL1        0.0199
     14 C         139.3260  139.8537  165.2053 C.ar    1  UNL1        0.0222
     15 C         140.2815  140.4510  166.1955 C.ar    1  UNL1        0.0201
     16 C         141.4565  141.2504  165.7156 C.ar    1  UNL1        0.0382
     17 C         144.1728  142.3800  164.8710 C.3     1  UNL1        0.2525
     18 O         143.5869  142.6471  166.2258 O.3     1  UNL1       -0.4714
     19 C         140.7099  139.0374  160.1756 C.3     1  UNL1        0.0815
     20 C         142.1576  138.6560  160.0836 C.3     1  UNL1        0.0373
     21 C         142.6860  138.0127  158.8357 C.3     1  UNL1        0.0741
     22 N         141.7665  137.7509  157.6798 N.3     1  UNL1       -0.2689
     23 C         140.3187  138.1324  157.7718 C.3     1  UNL1        0.0741
     24 C         139.7904  138.7756  159.0197 C.3     1  UNL1        0.0373
     25 C         142.2948  137.1076  156.4320 C.3     1  UNL1        0.0991
     26 C         142.3707  135.6128  156.3333 C.ar    1  UNL1       -0.0065
     27 C         141.3808  134.8655  155.4897 C.ar    1  UNL1       -0.0033
     28 C         141.4568  133.3707  155.3910 C.ar    1  UNL1       -0.0048
     29 C         142.5228  132.6232  156.1360 C.ar    1  UNL1       -0.0258
     30 C         142.5988  131.1283  156.0374 C.3     1  UNL1        0.0307
     31 C         143.5127  133.3704  156.9796 C.ar    1  UNL1       -0.0261
     32 C         144.5787  132.6228  157.7245 C.3     1  UNL1        0.0307
     33 C         143.4367  134.8652  157.0782 C.ar    1  UNL1       -0.0075
@<TRIPOS>BOND
     1    17    18    1
     2    18     7    1
     3     7     8   ar
     4     8     9   ar
     5     9    10   ar
     6    10    11   ar
     7    11    12   ar
     8    12    13   ar
     9    13    14   ar
    10    14     1    1
    11     1     2    1
    12     2     3    1
    13     3    19    1
    14    19    20    1
    15    20    21    1
    16    21    22    1
    17    22    25    1
    18    25    26    1
    19    26    27   ar
    20    27    28   ar
    21    28    29   ar
    22    29    30    1
    23    29    31   ar
    24    31    32    1
    25    31    33   ar
    26    22    23    1
    27    23    24    1
    28     3     4   am
    29     4     5    2
    30     4     6    1
    31    14    15   ar
    32    15    16   ar
    33    16     7   ar
    34    15    10   ar
    35     6     1    1
    36    24    19    1
    37    33    26   ar
@<TRIPOS>MOLECULE
*****
 33 37 0 0 0
SMALL
GASTEIGER

@<TRIPOS>ATOM
      1 C         140.3949  141.1166  161.7511 C.3     1  UNL1        0.2126
      2 C         140.6985  140.7406  160.3311 C.3     1  UNL1        0.1448
      3 N         140.8611  139.2506  160.2707 N.am    1  UNL1       -0.2435
      4 C         140.6581  138.7058  161.6535 C.2     1  UNL1        0.4052
      5 O         140.7304  137.2614  162.0514 O.2     1  UNL1       -0.2262
      6 O         140.3699  139.8590  162.5684 O.3     1  UNL1       -0.4319
      7 C         143.8379  143.5549  163.3165 C.ar    1  UNL1        0.1388
      8 C         143.6009  144.9444  163.8292 C.ar    1  UNL1        0.0384
      9 C         142.2163  145.5213  163.8201 C.ar    1  UNL1        0.0222
     10 C         141.0686  144.7085  163.2983 C.ar    1  UNL1        0.0813
     11 N         139.6840  145.2854  163.2892 N.ar    1  UNL1       -0.2439
     12 C         138.5364  144.4726  162.7674 C.ar    1  UNL1        0.0986
     13 C         138.7733  143.0830  162.2547 C.ar    1  UNL1        0.0199
     14 C         140.1579  142.5061  162.2638 C.ar    1  UNL1        0.0222
     15 C         141.3056  143.3190  162.7856 C.ar    1  UNL1        0.0201
     16 C         142.6902  142.7421  162.7947 C.ar    1  UNL1        0.0382
     17 C         145.4152  141.4908  163.3549 C.3     1  UNL1        0.2525
     18 O         145.2225  142.9780  163.3256 O.3     1  UNL1       -0.4714
     19 C         141.1722  138.4467  159.0431 C.3     1  UNL1        0.0815
     20 C         142.5542  137.9026  158.8332 C.3     1  UNL1        0.0373
     21 C         142.8654  137.0986  157.6057 C.3     1  UNL1        0.0741
     22 N         141.7944  136.8387  156.5880 N.3     1  UNL1       -0.2689
     23 C         140.4124  137.3828  156.7980 C.3     1  UNL1        0.0741
     24 C         140.1013  138.1868  158.0255 C.3     1  UNL1        0.0373
     25 C         142.1055  136.0348  155.3605 C.3     1  UNL1        0.0991
     26 C         142.2818  134.5486  155.4621 C.ar    1  UNL1       -0.0065
     27 C         141.1496  133.6326  155.1030 C.ar    1  UNL1       -0.0033
     28 C         141.3261  132.1465  155.2047 C.ar    1  UNL1       -0.0048
     29 C         142.6348  131.5764  155.6655 C.ar    1  UNL1       -0.0258
     30 C         142.8112  130.0903  155.7672 C.3     1  UNL1        0.0307
     31 C         143.7670  132.4924  156.0247 C.ar    1  UNL1       -0.0261
     32 C         145.0757  131.9223  156.4855 C.3     1  UNL1        0.0307
     33 C         143.5905  133.9785  155.9230 C.ar    1  UNL1       -0.0075
@<TRIPOS>BOND
     1    17    18    1
     2    18     7    1
     3     7     8   ar
     4     8     9   ar
     5     9    10   ar
     6    10    11   ar
     7    11    12   ar
     8    12    13   ar
     9    13    14   ar
    10    14     1    1
    11     1     2    1
    12     2     3    1
    13     3    19    1
    14    19    20    1
    15    20    21    1
    16    21    22    1
    17    22    25    1
    18    25    26    1
    19    26    27   ar
    20    27    28   ar
    21    28    29   ar
    22    29    30    1
    23    29    31   ar
    24    31    32    1
    25    31    33   ar
    26    22    23    1
    27    23    24    1
    28     3     4   am
    29     4     5    2
    30     4     6    1
    31    14    15   ar
    32    15    16   ar
    33    16     7   ar
    34    15    10   ar
    35     6     1    1
    36    24    19    1
    37    33    26   ar
@<TRIPOS>MOLECULE
*****
 33 37 0 0 0
SMALL
GASTEIGER

@<TRIPOS>ATOM
      1 C         139.5510  141.4598  162.5365 C.3     1  UNL1        0.2126
      2 C         139.8709  141.7306  161.0963 C.3     1  UNL1        0.1448
      3 N         139.5021  143.1539  160.7992 N.am    1  UNL1       -0.2435
      4 C         138.9542  143.7627  162.0559 C.2     1  UNL1        0.4052
      5 O         138.4624  145.1712  162.2116 O.2     1  UNL1       -0.2262
      6 O         138.9844  142.7157  163.1296 O.3     1  UNL1       -0.4319
      7 C         143.4865  140.6128  164.5476 C.ar    1  UNL1        0.1388
      8 C         143.6963  139.3141  165.2682 C.ar    1  UNL1        0.0384
      9 C         142.5943  138.2977  165.3185 C.ar    1  UNL1        0.0222
     10 C         141.2825  138.5800  164.6481 C.ar    1  UNL1        0.0813
     11 N         140.1805  137.5636  164.6984 N.ar    1  UNL1       -0.2439
     12 C         138.8687  137.8459  164.0281 C.ar    1  UNL1        0.0986
     13 C         138.6588  139.1447  163.3074 C.ar    1  UNL1        0.0199
     14 C         139.7608  140.1611  163.2571 C.ar    1  UNL1        0.0222
     15 C         141.0727  139.8787  163.9275 C.ar    1  UNL1        0.0201
     16 C         142.1747  140.8951  163.8772 C.ar    1  UNL1        0.0382
     17 C         145.7734  141.4072  163.6048 C.3     1  UNL1        0.2525
     18 O         144.5885  141.6292  164.4973 O.3     1  UNL1       -0.4714
     19 C         139.6543  143.8467  159.4776 C.3     1  UNL1        0.0815
     20 C         139.0395  143.2536  158.2446 C.3     1  UNL1        0.0373
     21 C         139.1917  143.9464  156.9229 C.3     1  UNL1        0.0741
     22 N         139.9589  145.2324  156.8342 N.3     1  UNL1       -0.2689
     23 C         140.5737  145.8255  158.0672 C.3     1  UNL1        0.0741
     24 C         140.4215  145.1326  159.3889 C.3     1  UNL1        0.0373
     25 C         140.1112  145.9252  155.5125 C.3     1  UNL1        0.0991
     26 C         139.7364  147.3713  155.3763 C.ar    1  UNL1       -0.0065
     27 C         138.8500  148.0161  156.4002 C.ar    1  UNL1       -0.0033
     28 C         138.4753  149.4621  156.2638 C.ar    1  UNL1       -0.0048
     29 C         138.9869  150.2633  155.1035 C.ar    1  UNL1       -0.0258
     30 C         138.6122  151.7093  154.9672 C.3     1  UNL1        0.0307
     31 C         139.8733  149.6185  154.0796 C.ar    1  UNL1       -0.0261
     32 C         140.3850  150.4197  152.9193 C.3     1  UNL1        0.0307
     33 C         140.2481  148.1725  154.2160 C.ar    1  UNL1       -0.0075
@<TRIPOS>BOND
     1    17    18    1
     2    18     7    1
     3     7     8   ar
     4     8     9   ar
     5     9    10   ar
     6    10    11   ar
     7    11    12   ar
     8    12    13   ar
     9    13    14   ar
    10    14     1    1
    11     1     2    1
    12     2     3    1
    13     3    19    1
    14    19    20    1
    15    20    21    1
    16    21    22    1
    17    22    25    1
    18    25    26    1
    19    26    27   ar
    20    27    28   ar
    21    28    29   ar
    22    29    30    1
    23    29    31   ar
    24    31    32    1
    25    31    33   ar
    26    22    23    1
    27    23    24    1
    28     3     4   am
    29     4     5    2
    30     4     6    1
    31    14    15   ar
    32    15    16   ar
    33    16     7   ar
    34    15    10   ar
    35     6     1    1
    36    24    19    1
    37    33    26   ar
@<TRIPOS>MOLECULE
*****
 33 37 0 0 0
SMALL
GASTEIGER

@<TRIPOS>ATOM
      1 C         142.0764  138.0644  158.1402 C.3     1  UNL1        0.2126
      2 C         140.9887  138.3759  159.1249 C.3     1  UNL1        0.1448
      3 N         141.5982  138.4050  160.4952 N.am    1  UNL1       -0.2435
      4 C         143.0628  138.1115  160.3573 C.2     1  UNL1        0.4052
      5 O         144.0572  138.0408  161.4781 O.2     1  UNL1       -0.2262
      6 O         143.3583  137.9010  158.9019 O.3     1  UNL1       -0.4319
      7 C         142.7984  134.1069  156.1236 C.ar    1  UNL1        0.1388
      8 C         142.6333  133.9810  154.6381 C.ar    1  UNL1        0.0384
      9 C         142.2275  135.1742  153.8247 C.ar    1  UNL1        0.0222
     10 C         141.9869  136.4934  154.4969 C.ar    1  UNL1        0.0813
     11 N         141.5812  137.6866  153.6835 N.ar    1  UNL1       -0.2439
     12 C         141.3405  139.0058  154.3557 C.ar    1  UNL1        0.0986
     13 C         141.5056  139.1318  155.8413 C.ar    1  UNL1        0.0199
     14 C         141.9114  137.9385  156.6547 C.ar    1  UNL1        0.0222
     15 C         142.1520  136.6193  155.9824 C.ar    1  UNL1        0.0201
     16 C         142.5577  135.4261  156.7958 C.ar    1  UNL1        0.0382
     17 C         144.5561  132.8725  157.5853 C.3     1  UNL1        0.2525
     18 O         143.2041  132.9137  156.9370 O.3     1  UNL1       -0.4714
     19 C         140.8709  138.6793  161.7780 C.3     1  UNL1        0.0815
     20 C         141.1194  137.8174  162.9802 C.3     1  UNL1        0.0373
     21 C         140.3922  138.0917  164.2632 C.3     1  UNL1        0.0741
     22 N         139.4163  139.2281  164.3438 N.3     1  UNL1       -0.2689
     23 C         139.1678  140.0901  163.1417 C.3     1  UNL1        0.0741
     24 C         139.8951  139.8157  161.8588 C.3     1  UNL1        0.0373
     25 C         138.6890  139.5025  165.6267 C.3     1  UNL1        0.0991
     26 C         139.3091  140.3895  166.6654 C.ar    1  UNL1       -0.0065
     27 C         139.8758  141.7216  166.2726 C.ar    1  UNL1       -0.0033
     28 C         140.4958  142.6086  167.3113 C.ar    1  UNL1       -0.0048
     29 C         140.5491  142.1634  168.7428 C.ar    1  UNL1       -0.0258
     30 C         141.1691  143.0503  169.7815 C.3     1  UNL1        0.0307
     31 C         139.9824  140.8313  169.1355 C.ar    1  UNL1       -0.0261
     32 C         140.0357  140.3861  170.5669 C.3     1  UNL1        0.0307
     33 C         139.3624  139.9443  168.0968 C.ar    1  UNL1       -0.0075
@<TRIPOS>BOND
     1    17    18    1
     2    18     7    1
     3     7     8   ar
     4     8     9   ar
     5     9    10   ar
     6    10    11   ar
     7    11    12   ar
     8    12    13   ar
     9    13    14   ar
    10    14     1    1
    11     1     2    1
    12     2     3    1
    13     3    19    1
    14    19    20    1
    15    20    21    1
    16    21    22    1
    17    22    25    1
    18    25    26    1
    19    26    27   ar
    20    27    28   ar
    21    28    29   ar
    22    29    30    1
    23    29    31   ar
    24    31    32    1
    25    31    33   ar
    26    22    23    1
    27    23    24    1
    28     3     4   am
    29     4     5    2
    30     4     6    1
    31    14    15   ar
    32    15    16   ar
    33    16     7   ar
    34    15    10   ar
    35     6     1    1
    36    24    19    1
    37    33    26   ar
@<TRIPOS>MOLECULE
*****
 33 37 0 0 0
SMALL
GASTEIGER

@<TRIPOS>ATOM
      1 C         139.0110  140.0758  161.3558 C.3     1  UNL1        0.2126
      2 C         140.0532  139.2381  160.6762 C.3     1  UNL1        0.1448
      3 N         139.7084  139.1617  159.2184 N.am    1  UNL1       -0.2435
      4 C         138.4530  139.9523  158.9970 C.2     1  UNL1        0.4052
      5 O         137.7517  140.1442  157.6850 O.2     1  UNL1       -0.2262
      6 O         138.0219  140.5172  160.3180 O.3     1  UNL1       -0.4319
      7 C         139.0862  144.3772  162.6757 C.ar    1  UNL1        0.1388
      8 C         139.0409  144.7143  164.1366 C.ar    1  UNL1        0.0384
      9 C         138.9705  143.6176  165.1576 C.ar    1  UNL1        0.0222
     10 C         138.9454  142.1838  164.7176 C.ar    1  UNL1        0.0813
     11 N         138.8750  141.0871  165.7386 N.ar    1  UNL1       -0.2439
     12 C         138.8500  139.6534  165.2986 C.ar    1  UNL1        0.0986
     13 C         138.8953  139.3162  163.8377 C.ar    1  UNL1        0.0199
     14 C         138.9657  140.4129  162.8167 C.ar    1  UNL1        0.0222
     15 C         138.9907  141.8467  163.2567 C.ar    1  UNL1        0.0201
     16 C         139.0611  142.9434  162.2358 C.ar    1  UNL1        0.0382
     17 C         140.3117  145.5367  160.7000 C.3     1  UNL1        0.2525
     18 O         139.1565  145.4739  161.6548 O.3     1  UNL1       -0.4714
     19 C         140.4830  138.4243  158.1666 C.3     1  UNL1        0.0815
     20 C         139.7579  137.6747  157.0885 C.3     1  UNL1        0.0373
     21 C         140.5324  136.9373  156.0366 C.3     1  UNL1        0.0741
     22 N         142.0322  136.9495  156.0630 N.3     1  UNL1       -0.2689
     23 C         142.7573  137.6991  157.1411 C.3     1  UNL1        0.0741
     24 C         141.9827  138.4365  158.1929 C.3     1  UNL1        0.0373
     25 C         142.8068  136.2121  155.0112 C.3     1  UNL1        0.0991
     26 C         143.1102  134.7537  155.1876 C.ar    1  UNL1       -0.0065
     27 C         142.6222  133.7584  154.1771 C.ar    1  UNL1       -0.0033
     28 C         142.9257  132.3001  154.3536 C.ar    1  UNL1       -0.0048
     29 C         143.7172  131.8371  155.5407 C.ar    1  UNL1       -0.0258
     30 C         144.0207  130.3788  155.7173 C.3     1  UNL1        0.0307
     31 C         144.2052  132.8324  156.5512 C.ar    1  UNL1       -0.0261
     32 C         144.9967  132.3693  157.7383 C.3     1  UNL1        0.0307
     33 C         143.9017  134.2907  156.3747 C.ar    1  UNL1       -0.0075
@<TRIPOS>BOND
     1    17    18    1
     2    18     7    1
     3     7     8   ar
     4     8     9   ar
     5     9    10   ar
     6    10    11   ar
     7    11    12   ar
     8    12    13   ar
     9    13    14   ar
    10    14     1    1
    11     1     2    1
    12     2     3    1
    13     3    19    1
    14    19    20    1
    15    20    21    1
    16    21    22    1
    17    22    25    1
    18    25    26    1
    19    26    27   ar
    20    27    28   ar
    21    28    29   ar
    22    29    30    1
    23    29    31   ar
    24    31    32    1
    25    31    33   ar
    26    22    23    1
    27    23    24    1
    28     3     4   am
    29     4     5    2
    30     4     6    1
    31    14    15   ar
    32    15    16   ar
    33    16     7   ar
    34    15    10   ar
    35     6     1    1
    36    24    19    1
    37    33    26   ar
@<TRIPOS>MOLECULE
*****
 33 37 0 0 0
SMALL
GASTEIGER

@<TRIPOS>ATOM
      1 C         140.8830  142.7662  163.2497 C.3     1  UNL1        0.2126
      2 C         141.1159  142.8138  161.7687 C.3     1  UNL1        0.1448
      3 N         140.1646  143.8141  161.1817 N.am    1  UNL1       -0.2435
      4 C         139.3437  144.3847  162.3000 C.2     1  UNL1        0.4052
      5 O         138.2678  145.4210  162.1641 O.2     1  UNL1       -0.2262
      6 O         139.7877  143.7371  163.5781 O.3     1  UNL1       -0.4319
      7 C         140.1351  138.3296  163.3310 C.ar    1  UNL1        0.1388
      8 C         140.8687  137.4632  164.3115 C.ar    1  UNL1        0.0384
      9 C         141.8515  138.0758  165.2648 C.ar    1  UNL1        0.0222
     10 C         142.1008  139.5546  165.2377 C.ar    1  UNL1        0.0813
     11 N         143.0836  140.1671  166.1911 N.ar    1  UNL1       -0.2439
     12 C         143.3329  141.6460  166.1640 C.ar    1  UNL1        0.0986
     13 C         142.5993  142.5124  165.1835 C.ar    1  UNL1        0.0199
     14 C         141.6165  141.8999  164.2301 C.ar    1  UNL1        0.0222
     15 C         141.3672  140.4209  164.2573 C.ar    1  UNL1        0.0201
     16 C         140.3844  139.8084  163.3039 C.ar    1  UNL1        0.0382
     17 C         139.1867  138.0870  160.9244 C.3     1  UNL1        0.2525
     18 O         139.1523  137.7171  162.3777 O.3     1  UNL1       -0.4714
     19 C         140.0537  144.1796  159.7311 C.3     1  UNL1        0.0815
     20 C         140.6615  145.4564  159.2308 C.3     1  UNL1        0.0373
     21 C         140.5506  145.8220  157.7802 C.3     1  UNL1        0.0741
     22 N         139.8318  144.9106  156.8300 N.3     1  UNL1       -0.2689
     23 C         139.2241  143.6338  157.3303 C.3     1  UNL1        0.0741
     24 C         139.3350  143.2683  158.7809 C.3     1  UNL1        0.0373
     25 C         139.7209  145.2761  155.3794 C.3     1  UNL1        0.0991
     26 C         139.7376  146.7179  154.9660 C.ar    1  UNL1       -0.0065
     27 C         140.5319  147.1454  153.7676 C.ar    1  UNL1       -0.0033
     28 C         140.5485  148.5873  153.3543 C.ar    1  UNL1       -0.0048
     29 C         139.7707  149.6015  154.1393 C.ar    1  UNL1       -0.0258
     30 C         139.7872  151.0434  153.7259 C.3     1  UNL1        0.0307
     31 C         138.9763  149.1740  155.3377 C.ar    1  UNL1       -0.0261
     32 C         138.1985  150.1883  156.1227 C.3     1  UNL1        0.0307
     33 C         138.9597  147.7322  155.7510 C.ar    1  UNL1       -0.0075
@<TRIPOS>BOND
     1    17    18    1
     2    18     7    1
     3     7     8   ar
     4     8     9   ar
     5     9    10   ar
     6    10    11   ar
     7    11    12   ar
     8    12    13   ar
     9    13    14   ar
    10    14     1    1
    11     1     2    1
    12     2     3    1
    13     3    19    1
    14    19    20    1
    15    20    21    1
    16    21    22    1
    17    22    25    1
    18    25    26    1
    19    26    27   ar
    20    27    28   ar
    21    28    29   ar
    22    29    30    1
    23    29    31   ar
    24    31    32    1
    25    31    33   ar
    26    22    23    1
    27    23    24    1
    28     3     4   am
    29     4     5    2
    30     4     6    1
    31    14    15   ar
    32    15    16   ar
    33    16     7   ar
    34    15    10   ar
    35     6     1    1
    36    24    19    1
    37    33    26   ar
@<TRIPOS>MOLECULE
*****
 33 37 0 0 0
SMALL
GASTEIGER

@<TRIPOS>ATOM
      1 C         141.4488  141.9858  160.3796 C.3     1  UNL1        0.2126
      2 C         141.0759  141.1787  159.1716 C.3     1  UNL1        0.1448
      3 N         142.0869  140.0814  159.0171 N.am    1  UNL1       -0.2435
      4 C         143.0847  140.2104  160.1298 C.2     1  UNL1        0.4052
      5 O         144.2689  139.3189  160.3599 O.2     1  UNL1       -0.2262
      6 O         142.6902  141.3874  160.9718 O.3     1  UNL1       -0.4319
      7 C         138.2926  141.4707  163.5456 C.ar    1  UNL1        0.1388
      8 C         137.5537  142.6663  164.0695 C.ar    1  UNL1        0.0384
      9 C         137.8669  144.0336  163.5381 C.ar    1  UNL1        0.0222
     10 C         138.9189  144.2054  162.4828 C.ar    1  UNL1        0.0813
     11 N         139.2320  145.5727  161.9514 N.ar    1  UNL1       -0.2439
     12 C         140.2841  145.7444  160.8961 C.ar    1  UNL1        0.0986
     13 C         141.0230  144.5487  160.3721 C.ar    1  UNL1        0.0199
     14 C         140.7099  143.1814  160.9035 C.ar    1  UNL1        0.0222
     15 C         139.6578  143.0097  161.9589 C.ar    1  UNL1        0.0201
     16 C         139.3446  141.6424  162.4903 C.ar    1  UNL1        0.0382
     17 C         138.5180  139.6753  165.4099 C.3     1  UNL1        0.2525
     18 O         137.9795  140.1034  164.0770 O.3     1  UNL1       -0.4714
     19 C         142.0983  139.0383  157.9392 C.3     1  UNL1        0.0815
     20 C         143.2809  138.9179  157.0244 C.3     1  UNL1        0.0373
     21 C         143.2923  137.8748  155.9465 C.3     1  UNL1        0.0741
     22 N         142.1209  136.9520  155.7835 N.3     1  UNL1       -0.2689
     23 C         140.9383  137.0724  156.6983 C.3     1  UNL1        0.0741
     24 C         140.9270  138.1155  157.7762 C.3     1  UNL1        0.0373
     25 C         142.1323  135.9089  154.7056 C.3     1  UNL1        0.0991
     26 C         142.7338  134.5610  154.9728 C.ar    1  UNL1       -0.0065
     27 C         142.5667  133.4538  153.9746 C.ar    1  UNL1       -0.0033
     28 C         143.1682  132.1060  154.2419 C.ar    1  UNL1       -0.0048
     29 C         143.9368  131.8653  155.5074 C.ar    1  UNL1       -0.0258
     30 C         144.5384  130.5174  155.7747 C.3     1  UNL1        0.0307
     31 C         144.1039  132.9724  156.5056 C.ar    1  UNL1       -0.0261
     32 C         144.8724  132.7317  157.7710 C.3     1  UNL1        0.0307
     33 C         143.5023  134.3202  156.2383 C.ar    1  UNL1       -0.0075
@<TRIPOS>BOND
     1    17    18    1
     2    18     7    1
     3     7     8   ar
     4     8     9   ar
     5     9    10   ar
     6    10    11   ar
     7    11    12   ar
     8    12    13   ar
     9    13    14   ar
    10    14     1    1
    11     1     2    1
    12     2     3    1
    13     3    19    1
    14    19    20    1
    15    20    21    1
    16    21    22    1
    17    22    25    1
    18    25    26    1
    19    26    27   ar
    20    27    28   ar
    21    28    29   ar
    22    29    30    1
    23    29    31   ar
    24    31    32    1
    25    31    33   ar
    26    22    23    1
    27    23    24    1
    28     3     4   am
    29     4     5    2
    30     4     6    1
    31    14    15   ar
    32    15    16   ar
    33    16     7   ar
    34    15    10   ar
    35     6     1    1
    36    24    19    1
    37    33    26   ar
@<TRIPOS>MOLECULE
*****
 33 37 0 0 0
SMALL
GASTEIGER

@<TRIPOS>ATOM
      1 C         141.4588  141.4706  163.0894 C.3     1  UNL1        0.2126
      2 C         141.9106  140.4000  162.1409 C.3     1  UNL1        0.1448
      3 N         141.1866  140.5960  160.8419 N.am    1  UNL1       -0.2435
      4 C         140.2873  141.7877  160.9875 C.2     1  UNL1        0.4052
      5 O         139.3792  142.3415  159.9299 O.2     1  UNL1       -0.2262
      6 O         140.4555  142.3282  162.3766 O.3     1  UNL1       -0.4319
      7 C         139.0376  139.8009  166.4952 C.ar    1  UNL1        0.1388
      8 C         139.5066  139.9821  167.9084 C.ar    1  UNL1        0.0384
      9 C         140.7828  140.7198  168.1863 C.ar    1  UNL1        0.0222
     10 C         141.5898  141.2764  167.0511 C.ar    1  UNL1        0.0813
     11 N         142.8659  142.0141  167.3290 N.ar    1  UNL1       -0.2439
     12 C         143.6730  142.5707  166.1938 C.ar    1  UNL1        0.0986
     13 C         143.2039  142.3895  164.7805 C.ar    1  UNL1        0.0199
     14 C         141.9278  141.6518  164.5026 C.ar    1  UNL1        0.0222
     15 C         141.1208  141.0952  165.6379 C.ar    1  UNL1        0.0201
     16 C         139.8446  140.3575  165.3600 C.ar    1  UNL1        0.0382
     17 C         137.3325  137.9416  167.1162 C.3     1  UNL1        0.2525
     18 O         137.7615  139.0631  166.2173 O.3     1  UNL1       -0.4714
     19 C         141.3357  139.7489  159.6129 C.3     1  UNL1        0.0815
     20 C         142.6173  139.7763  158.8341 C.3     1  UNL1        0.0373
     21 C         142.7665  138.9292  157.6051 C.3     1  UNL1        0.0741
     22 N         141.6339  138.0548  157.1550 N.3     1  UNL1       -0.2689
     23 C         140.3522  138.0274  157.9338 C.3     1  UNL1        0.0741
     24 C         140.2031  138.8745  159.1628 C.3     1  UNL1        0.0373
     25 C         141.7830  137.2077  155.9261 C.3     1  UNL1        0.0991
     26 C         142.0363  135.7350  156.0565 C.ar    1  UNL1       -0.0065
     27 C         141.1907  134.7581  155.2945 C.ar    1  UNL1       -0.0033
     28 C         141.4441  133.2855  155.4251 C.ar    1  UNL1       -0.0048
     29 C         142.5431  132.7897  156.3177 C.ar    1  UNL1       -0.0258
     30 C         142.7965  131.3171  156.4482 C.3     1  UNL1        0.0307
     31 C         143.3886  133.7667  157.0797 C.ar    1  UNL1       -0.0261
     32 C         144.4875  133.2709  157.9722 C.3     1  UNL1        0.0307
     33 C         143.1352  135.2393  156.9491 C.ar    1  UNL1       -0.0075
@<TRIPOS>BOND
     1    17    18    1
     2    18     7    1
     3     7     8   ar
     4     8     9   ar
     5     9    10   ar
     6    10    11   ar
     7    11    12   ar
     8    12    13   ar
     9    13    14   ar
    10    14     1    1
    11     1     2    1
    12     2     3    1
    13     3    19    1
    14    19    20    1
    15    20    21    1
    16    21    22    1
    17    22    25    1
    18    25    26    1
    19    26    27   ar
    20    27    28   ar
    21    28    29   ar
    22    29    30    1
    23    29    31   ar
    24    31    32    1
    25    31    33   ar
    26    22    23    1
    27    23    24    1
    28     3     4   am
    29     4     5    2
    30     4     6    1
    31    14    15   ar
    32    15    16   ar
    33    16     7   ar
    34    15    10   ar
    35     6     1    1
    36    24    19    1
    37    33    26   ar
