@<TRIPOS>MOLECULE
*****
 37 41 0 0 0
SMALL
GASTEIGER

@<TRIPOS>ATOM
      1 C         140.8449  138.4440  163.9842 C.3     1  UNL1        0.0396
      2 C         142.3069  138.4961  163.6528 C.3     1  UNL1        0.0765
      3 N         142.4746  138.0617  162.2269 N.3     1  UNL1       -0.2721
      4 C         141.1163  137.7412  161.6770 C.3     1  UNL1        0.0724
      5 C         140.1090  137.9775  162.7632 C.3     1  UNL1        0.0218
      6 C         138.9918  139.5020  167.9461 C.ar    1  UNL1        0.1387
      7 C         138.1913  138.7583  166.9185 C.ar    1  UNL1        0.0366
      8 C         138.8090  138.4056  165.5979 C.ar    1  UNL1       -0.0011
      9 C         140.2271  138.7967  165.3049 C.ar    1  UNL1       -0.0209
     10 C         141.0277  139.5404  166.3325 C.ar    1  UNL1       -0.0011
     11 C         140.4100  139.8931  167.6532 C.ar    1  UNL1        0.0366
     12 C         138.9765  140.9383  170.1110 C.3     1  UNL1        0.2525
     13 O         138.3741  139.8546  169.2668 O.3     1  UNL1       -0.4714
     14 C         143.7728  137.9647  161.4816 C.3     1  UNL1        0.0768
     15 C         144.2031  139.0808  160.5766 C.3     1  UNL1        0.0438
     16 C         144.1814  140.4972  161.0698 C.ar    1  UNL1       -0.0176
     17 C         143.6392  141.5880  160.1945 C.ar    1  UNL1       -0.0009
     18 C         143.6175  143.0044  160.6879 C.ar    1  UNL1        0.0397
     19 C         144.1381  143.3300  162.0565 C.ar    1  UNL1        0.1724
     20 C         144.6804  142.2392  162.9318 C.ar    1  UNL1        0.1721
     21 C         144.7020  140.8228  162.4384 C.ar    1  UNL1        0.0358
     22 O         144.1164  144.7464  162.5498 O.3     1  UNL1       -0.4684
     23 C         142.9733  145.2298  163.3922 C.3     1  UNL1        0.2526
     24 O         145.2009  142.5648  164.3004 O.3     1  UNL1       -0.4684
     25 C         144.2494  142.7015  165.4517 C.3     1  UNL1        0.2526
     26 C         138.6263  137.7817  162.6484 C.3     1  UNL1        0.0080
     27 C         137.7801  138.8304  161.9896 C.3     1  UNL1        0.0458
     28 C         138.0606  140.2834  162.2347 C.2     1  UNL1        0.0586
     29 C         137.6906  141.0576  163.4650 C.2     1  UNL1        0.0159
     30 C         138.1617  142.4700  163.2831 C.2     1  UNL1        0.0151
     31 C         138.0741  143.6790  164.1667 C.2     1  UNL1        0.0018
     32 C         138.6476  144.9867  163.7075 C.2     1  UNL1        0.0075
     33 C         139.3087  145.0855  162.3647 C.2     1  UNL1        0.0414
     34 CL        139.8822  146.3933  161.9055 Cl      1  UNL1       -0.0865
     35 C         139.3964  143.8766  161.4811 C.3     1  UNL1        0.0836
     36 C         138.8229  142.5688  161.9403 C.2     1  UNL1        0.0639
     37 N         138.7604  141.2175  161.2924 N.2     1  UNL1       -0.2536
@<TRIPOS>BOND
     1    12    13    1
     2    13     6    1
     3     6     7   ar
     4     7     8   ar
     5     8     9   ar
     6     1     9    1
     7     1     2    1
     8     2     3    1
     9     3    14    1
    10    14    15    1
    11    15    16    1
    12    16    17   ar
    13    17    18   ar
    14    18    19   ar
    15    19    22    1
    16    22    23    1
    17    19    20   ar
    18    20    24    1
    19    24    25    1
    20    20    21   ar
    21     3     4    1
    22     4     5    1
    23     5    26    1
    24    26    27    1
    25    27    28    1
    26    28    29    2
    27    29    30    1
    28    30    31    2
    29    31    32    1
    30    32    33    2
    31    33    34    1
    32    33    35    1
    33    35    36    1
    34    36    37    2
    35     9    10   ar
    36    10    11   ar
    37    11     6   ar
    38     5     1    1
    39    37    28    1
    40    21    16   ar
    41    36    30    1
@<TRIPOS>MOLECULE
*****
 37 41 0 0 0
SMALL
GASTEIGER

@<TRIPOS>ATOM
      1 C         139.3726  140.6945  165.9049 C.3     1  UNL1        0.0396
      2 C         139.1769  142.0899  165.3905 C.3     1  UNL1        0.0765
      3 N         138.1565  142.0401  164.2922 N.3     1  UNL1       -0.2721
      4 C         137.7215  140.6139  164.1278 C.3     1  UNL1        0.0724
      5 C         138.4732  139.7823  165.1246 C.3     1  UNL1        0.0218
      6 C         142.1675  139.4615  169.2092 C.ar    1  UNL1        0.1387
      7 C         142.6593  139.5190  167.7933 C.ar    1  UNL1        0.0366
      8 C         141.7277  139.9300  166.6919 C.ar    1  UNL1       -0.0011
      9 C         140.3043  140.2835  167.0063 C.ar    1  UNL1       -0.0209
     10 C         139.8124  140.2260  168.4223 C.ar    1  UNL1       -0.0011
     11 C         140.7440  139.8150  169.5237 C.ar    1  UNL1        0.0366
     12 C         143.3745  137.5967  170.5567 C.3     1  UNL1        0.2525
     13 O         143.0991  139.0505  170.3106 O.3     1  UNL1       -0.4714
     14 C         137.6584  143.2108  163.4977 C.3     1  UNL1        0.0768
     15 C         138.5694  144.3690  163.2171 C.3     1  UNL1        0.0438
     16 C         139.7699  144.1829  162.3373 C.ar    1  UNL1       -0.0176
     17 C         139.6092  143.6092  160.9607 C.ar    1  UNL1       -0.0009
     18 C         140.8099  143.4232  160.0809 C.ar    1  UNL1        0.0397
     19 C         142.1711  143.8108  160.5777 C.ar    1  UNL1        0.1724
     20 C         142.3318  144.3845  161.9544 C.ar    1  UNL1        0.1721
     21 C         141.1311  144.5705  162.8341 C.ar    1  UNL1        0.0358
     22 O         143.3716  143.6248  159.6979 O.3     1  UNL1       -0.4684
     23 C         143.9013  142.2465  159.4335 C.3     1  UNL1        0.2526
     24 O         143.6930  144.7721  162.4512 O.3     1  UNL1       -0.4684
     25 C         143.9644  144.8321  163.9251 C.3     1  UNL1        0.2526
     26 C         138.3475  138.2989  165.3087 C.3     1  UNL1        0.0080
     27 C         139.5185  137.4059  165.0239 C.3     1  UNL1        0.0458
     28 C         140.4180  137.6971  163.8594 C.2     1  UNL1        0.0586
     29 C         141.9089  137.8532  163.9143 C.2     1  UNL1        0.0159
     30 C         142.3969  138.1358  162.5243 C.2     1  UNL1        0.0151
     31 C         143.7705  138.3787  161.9728 C.2     1  UNL1        0.0018
     32 C         143.9548  138.6401  160.5074 C.2     1  UNL1        0.0075
     33 C         142.7656  138.6587  159.5934 C.2     1  UNL1        0.0414
     34 CL        142.9500  138.9201  158.1279 Cl      1  UNL1       -0.0865
     35 C         141.3920  138.4158  160.1449 C.3     1  UNL1        0.0836
     36 C         141.2076  138.1544  161.6103 C.2     1  UNL1        0.0639
     37 N         139.9847  137.8832  162.4354 N.2     1  UNL1       -0.2536
@<TRIPOS>BOND
     1    12    13    1
     2    13     6    1
     3     6     7   ar
     4     7     8   ar
     5     8     9   ar
     6     1     9    1
     7     1     2    1
     8     2     3    1
     9     3    14    1
    10    14    15    1
    11    15    16    1
    12    16    17   ar
    13    17    18   ar
    14    18    19   ar
    15    19    22    1
    16    22    23    1
    17    19    20   ar
    18    20    24    1
    19    24    25    1
    20    20    21   ar
    21     3     4    1
    22     4     5    1
    23     5    26    1
    24    26    27    1
    25    27    28    1
    26    28    29    2
    27    29    30    1
    28    30    31    2
    29    31    32    1
    30    32    33    2
    31    33    34    1
    32    33    35    1
    33    35    36    1
    34    36    37    2
    35     9    10   ar
    36    10    11   ar
    37    11     6   ar
    38     5     1    1
    39    37    28    1
    40    21    16   ar
    41    36    30    1
@<TRIPOS>MOLECULE
*****
 37 41 0 0 0
SMALL
GASTEIGER

@<TRIPOS>ATOM
      1 C         139.1866  139.3841  162.8132 C.3     1  UNL1        0.0396
      2 C         138.4046  140.2240  161.8473 C.3     1  UNL1        0.0765
      3 N         138.8613  139.8816  160.4601 N.3     1  UNL1       -0.2721
      4 C         139.9256  138.8301  160.5687 C.3     1  UNL1        0.0724
      5 C         140.1266  138.5226  162.0231 C.3     1  UNL1        0.0218
      6 C         138.7834  139.4392  167.2947 C.ar    1  UNL1        0.1387
      7 C         138.4144  138.2067  166.5237 C.ar    1  UNL1        0.0366
      8 C         138.5488  138.1883  165.0298 C.ar    1  UNL1       -0.0011
      9 C         139.0522  139.4024  164.3071 C.ar    1  UNL1       -0.0209
     10 C         139.4212  140.6351  165.0782 C.ar    1  UNL1       -0.0011
     11 C         139.2868  140.6534  166.5720 C.ar    1  UNL1        0.0366
     12 C         139.2683  140.5685  169.5838 C.3     1  UNL1        0.2525
     13 O         138.6490  139.4576  168.7886 O.3     1  UNL1       -0.4714
     14 C         138.3445  140.4848  159.1877 C.3     1  UNL1        0.0768
     15 C         139.0011  141.7064  158.6159 C.3     1  UNL1        0.0438
     16 C         140.1001  142.3910  159.3731 C.ar    1  UNL1       -0.0176
     17 C         141.5309  142.0198  159.1178 C.ar    1  UNL1       -0.0009
     18 C         142.6299  142.7045  159.8750 C.ar    1  UNL1        0.0397
     19 C         142.2982  143.7604  160.8874 C.ar    1  UNL1        0.1724
     20 C         140.8675  144.1317  161.1427 C.ar    1  UNL1        0.1721
     21 C         139.7685  143.4469  160.3855 C.ar    1  UNL1        0.0358
     22 O         143.3973  144.4451  161.6445 O.3     1  UNL1       -0.4684
     23 C         144.3781  143.6349  162.4393 C.3     1  UNL1        0.2526
     24 O         140.5358  145.1876  162.1551 O.3     1  UNL1       -0.4684
     25 C         139.6540  146.3400  161.7755 C.3     1  UNL1        0.2526
     26 C         141.0972  137.5282  162.5880 C.3     1  UNL1        0.0080
     27 C         142.4535  137.9792  163.0429 C.3     1  UNL1        0.0458
     28 C         142.5886  138.8269  164.2730 C.2     1  UNL1        0.0586
     29 C         142.8912  140.2957  164.3027 C.2     1  UNL1        0.0159
     30 C         142.9344  140.7312  165.7375 C.2     1  UNL1        0.0151
     31 C         143.1893  142.0652  166.3742 C.2     1  UNL1        0.0018
     32 C         143.1684  142.1994  167.8680 C.2     1  UNL1        0.0075
     33 C         142.8924  140.9997  168.7251 C.2     1  UNL1        0.0414
     34 CL        142.8715  141.1340  170.2189 Cl      1  UNL1       -0.0865
     35 C         142.6375  139.6657  168.0883 C.3     1  UNL1        0.0836
     36 C         142.6585  139.5315  166.5945 C.2     1  UNL1        0.0639
     37 N         142.4448  138.3546  165.6894 N.2     1  UNL1       -0.2536
@<TRIPOS>BOND
     1    12    13    1
     2    13     6    1
     3     6     7   ar
     4     7     8   ar
     5     8     9   ar
     6     1     9    1
     7     1     2    1
     8     2     3    1
     9     3    14    1
    10    14    15    1
    11    15    16    1
    12    16    17   ar
    13    17    18   ar
    14    18    19   ar
    15    19    22    1
    16    22    23    1
    17    19    20   ar
    18    20    24    1
    19    24    25    1
    20    20    21   ar
    21     3     4    1
    22     4     5    1
    23     5    26    1
    24    26    27    1
    25    27    28    1
    26    28    29    2
    27    29    30    1
    28    30    31    2
    29    31    32    1
    30    32    33    2
    31    33    34    1
    32    33    35    1
    33    35    36    1
    34    36    37    2
    35     9    10   ar
    36    10    11   ar
    37    11     6   ar
    38     5     1    1
    39    37    28    1
    40    21    16   ar
    41    36    30    1
@<TRIPOS>MOLECULE
*****
 37 41 0 0 0
SMALL
GASTEIGER

@<TRIPOS>ATOM
      1 C         142.5932  143.3331  161.4704 C.3     1  UNL1        0.0396
      2 C         143.7294  142.3577  161.5582 C.3     1  UNL1        0.0765
      3 N         144.4050  142.5512  162.8834 N.3     1  UNL1       -0.2721
      4 C         143.6864  143.6462  163.6146 C.3     1  UNL1        0.0724
      5 C         142.5666  144.1294  162.7413 C.3     1  UNL1        0.0218
      6 C         139.7617  143.7900  158.0029 C.ar    1  UNL1        0.1387
      7 C         139.3379  143.0248  159.2214 C.ar    1  UNL1        0.0366
      8 C         140.2817  142.8725  160.3772 C.ar    1  UNL1       -0.0011
      9 C         141.6493  143.4854  160.3145 C.ar    1  UNL1       -0.0209
     10 C         142.0732  144.2506  159.0960 C.ar    1  UNL1       -0.0011
     11 C         141.1293  144.4029  157.9401 C.ar    1  UNL1        0.0366
     12 C         139.0396  145.0275  155.8356 C.3     1  UNL1        0.2525
     13 O         138.8178  143.9423  156.8470 O.3     1  UNL1       -0.4714
     14 C         145.5910  141.7844  163.3887 C.3     1  UNL1        0.0768
     15 C         145.3891  140.5219  164.1731 C.3     1  UNL1        0.0438
     16 C         144.2008  139.6493  163.8970 C.ar    1  UNL1       -0.0176
     17 C         143.1580  139.4451  164.9557 C.ar    1  UNL1       -0.0009
     18 C         141.9696  138.5724  164.6794 C.ar    1  UNL1        0.0397
     19 C         141.8241  137.9039  163.3445 C.ar    1  UNL1        0.1724
     20 C         142.8669  138.1081  162.2858 C.ar    1  UNL1        0.1721
     21 C         144.0552  138.9808  162.5621 C.ar    1  UNL1        0.0358
     22 O         140.6357  137.0313  163.0684 O.3     1  UNL1       -0.4684
     23 C         139.3217  137.6501  162.6935 C.3     1  UNL1        0.2526
     24 O         142.7213  137.4396  160.9509 O.3     1  UNL1       -0.4684
     25 C         142.8977  138.2342  159.6911 C.3     1  UNL1        0.2526
     26 C         141.5914  145.2178  163.0795 C.3     1  UNL1        0.0080
     27 C         140.1816  144.8712  163.4564 C.3     1  UNL1        0.0458
     28 C         139.9031  143.6407  164.2677 C.2     1  UNL1        0.0586
     29 C         140.4960  143.3143  165.6063 C.2     1  UNL1        0.0159
     30 C         139.9421  141.9923  166.0488 C.2     1  UNL1        0.0151
     31 C         140.1686  141.1720  167.2840 C.2     1  UNL1        0.0018
     32 C         139.4598  139.8611  167.4540 C.2     1  UNL1        0.0075
     33 C         138.5245  139.3704  166.3888 C.2     1  UNL1        0.0414
     34 CL        137.8157  138.0594  166.5589 Cl      1  UNL1       -0.0865
     35 C         138.2981  140.1908  165.1536 C.3     1  UNL1        0.0836
     36 C         139.0069  141.5017  164.9836 C.2     1  UNL1        0.0639
     37 N         138.9827  142.5204  163.8829 N.2     1  UNL1       -0.2536
@<TRIPOS>BOND
     1    12    13    1
     2    13     6    1
     3     6     7   ar
     4     7     8   ar
     5     8     9   ar
     6     1     9    1
     7     1     2    1
     8     2     3    1
     9     3    14    1
    10    14    15    1
    11    15    16    1
    12    16    17   ar
    13    17    18   ar
    14    18    19   ar
    15    19    22    1
    16    22    23    1
    17    19    20   ar
    18    20    24    1
    19    24    25    1
    20    20    21   ar
    21     3     4    1
    22     4     5    1
    23     5    26    1
    24    26    27    1
    25    27    28    1
    26    28    29    2
    27    29    30    1
    28    30    31    2
    29    31    32    1
    30    32    33    2
    31    33    34    1
    32    33    35    1
    33    35    36    1
    34    36    37    2
    35     9    10   ar
    36    10    11   ar
    37    11     6   ar
    38     5     1    1
    39    37    28    1
    40    21    16   ar
    41    36    30    1
@<TRIPOS>MOLECULE
*****
 37 41 0 0 0
SMALL
GASTEIGER

@<TRIPOS>ATOM
      1 C         140.9148  143.2435  165.4406 C.3     1  UNL1        0.0396
      2 C         142.2471  143.2266  164.7517 C.3     1  UNL1        0.0765
      3 N         142.2271  144.2738  163.6779 N.3     1  UNL1       -0.2721
      4 C         140.8823  144.9379  163.7031 C.3     1  UNL1        0.0724
      5 C         140.0713  144.3012  164.7926 C.3     1  UNL1        0.0218
      6 C         139.6673  140.5876  168.8523 C.ar    1  UNL1        0.1387
      7 C         140.2630  141.9358  169.1305 C.ar    1  UNL1        0.0366
      8 C         140.6788  142.8211  167.9932 C.ar    1  UNL1       -0.0011
      9 C         140.4990  142.3583  166.5779 C.ar    1  UNL1       -0.0209
     10 C         139.9032  141.0100  166.2996 C.ar    1  UNL1       -0.0011
     11 C         139.4874  140.1247  167.4369 C.ar    1  UNL1        0.0366
     12 C         140.0392  139.7014  171.2660 C.3     1  UNL1        0.2525
     13 O         139.2515  139.7024  169.9895 O.3     1  UNL1       -0.4714
     14 C         143.3539  144.5996  162.7430 C.3     1  UNL1        0.0768
     15 C         143.8041  143.5890  161.7300 C.3     1  UNL1        0.0438
     16 C         143.3328  142.1683  161.8273 C.ar    1  UNL1       -0.0176
     17 C         142.1809  141.7011  160.9877 C.ar    1  UNL1       -0.0009
     18 C         141.7097  140.2804  161.0850 C.ar    1  UNL1        0.0397
     19 C         142.3903  139.3269  162.0218 C.ar    1  UNL1        0.1724
     20 C         143.5422  139.7941  162.8614 C.ar    1  UNL1        0.1721
     21 C         144.0134  141.2149  162.7641 C.ar    1  UNL1        0.0358
     22 O         141.9190  137.9062  162.1191 O.3     1  UNL1       -0.4684
     23 C         140.9009  137.5227  163.1517 C.3     1  UNL1        0.2526
     24 O         144.2227  138.8407  163.7983 O.3     1  UNL1       -0.4684
     25 C         143.8404  138.8127  165.2484 C.3     1  UNL1        0.2526
     26 C         138.6638  144.6592  165.1680 C.3     1  UNL1        0.0080
     27 C         137.5240  144.2474  164.2843 C.3     1  UNL1        0.0458
     28 C         137.7289  143.1909  163.2393 C.2     1  UNL1        0.0586
     29 C         137.6238  141.7096  163.4507 C.2     1  UNL1        0.0159
     30 C         137.9048  141.0334  162.1415 C.2     1  UNL1        0.0151
     31 C         137.9429  139.5868  161.7468 C.2     1  UNL1        0.0018
     32 C         138.2597  139.2037  160.3317 C.2     1  UNL1        0.0075
     33 C         138.5385  140.2671  159.3112 C.2     1  UNL1        0.0414
     34 CL        138.8553  139.8838  157.8959 Cl      1  UNL1       -0.0865
     35 C         138.5004  141.7137  159.7059 C.3     1  UNL1        0.0836
     36 C         138.1836  142.0969  161.1210 C.2     1  UNL1        0.0639
     37 N         138.0748  143.4302  161.7995 N.2     1  UNL1       -0.2536
@<TRIPOS>BOND
     1    12    13    1
     2    13     6    1
     3     6     7   ar
     4     7     8   ar
     5     8     9   ar
     6     1     9    1
     7     1     2    1
     8     2     3    1
     9     3    14    1
    10    14    15    1
    11    15    16    1
    12    16    17   ar
    13    17    18   ar
    14    18    19   ar
    15    19    22    1
    16    22    23    1
    17    19    20   ar
    18    20    24    1
    19    24    25    1
    20    20    21   ar
    21     3     4    1
    22     4     5    1
    23     5    26    1
    24    26    27    1
    25    27    28    1
    26    28    29    2
    27    29    30    1
    28    30    31    2
    29    31    32    1
    30    32    33    2
    31    33    34    1
    32    33    35    1
    33    35    36    1
    34    36    37    2
    35     9    10   ar
    36    10    11   ar
    37    11     6   ar
    38     5     1    1
    39    37    28    1
    40    21    16   ar
    41    36    30    1
@<TRIPOS>MOLECULE
*****
 37 41 0 0 0
SMALL
GASTEIGER

@<TRIPOS>ATOM
      1 C         142.4402  139.0506  164.7998 C.3     1  UNL1        0.0396
      2 C         143.4382  139.1146  163.6817 C.3     1  UNL1        0.0765
      3 N         142.9299  138.2617  162.5574 N.3     1  UNL1       -0.2721
      4 C         141.6177  137.6706  162.9804 C.3     1  UNL1        0.0724
      5 C         141.3151  138.1582  164.3664 C.3     1  UNL1        0.0218
      6 C         142.7647  141.1649  168.7588 C.ar    1  UNL1        0.1387
      7 C         142.7310  139.6661  168.7096 C.ar    1  UNL1        0.0366
      8 C         142.6228  138.9614  167.3899 C.ar    1  UNL1       -0.0011
      9 C         142.5484  139.7553  166.1195 C.ar    1  UNL1       -0.0209
     10 C         142.5820  141.2542  166.1687 C.ar    1  UNL1       -0.0011
     11 C         142.6902  141.9589  167.4885 C.ar    1  UNL1        0.0366
     12 C         141.6586  142.0312  170.9443 C.3     1  UNL1        0.2525
     13 O         142.8728  141.8696  170.0786 O.3     1  UNL1       -0.4714
     14 C         143.6136  138.0390  161.2410 C.3     1  UNL1        0.0768
     15 C         144.3724  139.1580  160.5911 C.3     1  UNL1        0.0438
     16 C         143.7807  140.5354  160.5406 C.ar    1  UNL1       -0.0176
     17 C         142.5545  140.7951  159.7165 C.ar    1  UNL1       -0.0009
     18 C         141.9629  142.1726  159.6660 C.ar    1  UNL1        0.0397
     19 C         142.5973  143.2903  160.4396 C.ar    1  UNL1        0.1724
     20 C         143.8234  143.0305  161.2637 C.ar    1  UNL1        0.1721
     21 C         144.4150  141.6530  161.3142 C.ar    1  UNL1        0.0358
     22 O         142.0055  144.6677  160.3890 O.3     1  UNL1       -0.4684
     23 C         141.3592  145.1605  159.1283 C.3     1  UNL1        0.2526
     24 O         144.4578  144.1481  162.0373 O.3     1  UNL1       -0.4684
     25 C         143.8719  144.5793  163.3490 C.3     1  UNL1        0.2526
     26 C         140.1007  137.8138  165.1766 C.3     1  UNL1        0.0080
     27 C         138.8606  138.6499  165.0618 C.3     1  UNL1        0.0458
     28 C         138.9693  140.1150  164.7590 C.2     1  UNL1        0.0586
     29 C         139.1227  141.2148  165.7674 C.2     1  UNL1        0.0159
     30 C         139.1918  142.5171  165.0262 C.2     1  UNL1        0.0151
     31 C         139.3412  143.9333  165.4973 C.2     1  UNL1        0.0018
     32 C         139.3800  145.0546  164.5017 C.2     1  UNL1        0.0075
     33 C         139.2693  144.7597  163.0352 C.2     1  UNL1        0.0414
     34 CL        139.3080  145.8811  162.0396 Cl      1  UNL1       -0.0865
     35 C         139.1198  143.3434  162.5642 C.3     1  UNL1        0.0836
     36 C         139.0811  142.2221  163.5597 C.2     1  UNL1        0.0639
     37 N         138.9436  140.7376  163.3945 N.2     1  UNL1       -0.2536
@<TRIPOS>BOND
     1    12    13    1
     2    13     6    1
     3     6     7   ar
     4     7     8   ar
     5     8     9   ar
     6     1     9    1
     7     1     2    1
     8     2     3    1
     9     3    14    1
    10    14    15    1
    11    15    16    1
    12    16    17   ar
    13    17    18   ar
    14    18    19   ar
    15    19    22    1
    16    22    23    1
    17    19    20   ar
    18    20    24    1
    19    24    25    1
    20    20    21   ar
    21     3     4    1
    22     4     5    1
    23     5    26    1
    24    26    27    1
    25    27    28    1
    26    28    29    2
    27    29    30    1
    28    30    31    2
    29    31    32    1
    30    32    33    2
    31    33    34    1
    32    33    35    1
    33    35    36    1
    34    36    37    2
    35     9    10   ar
    36    10    11   ar
    37    11     6   ar
    38     5     1    1
    39    37    28    1
    40    21    16   ar
    41    36    30    1
@<TRIPOS>MOLECULE
*****
 37 41 0 0 0
SMALL
GASTEIGER

@<TRIPOS>ATOM
      1 C         140.3656  138.3645  163.0763 C.3     1  UNL1        0.0396
      2 C         141.8366  138.3558  162.7828 C.3     1  UNL1        0.0765
      3 N         142.0140  138.1401  161.3091 N.3     1  UNL1       -0.2721
      4 C         140.6526  138.0155  160.6916 C.3     1  UNL1        0.0724
      5 C         139.6338  138.1542  161.7839 C.3     1  UNL1        0.0218
      6 C         138.4791  138.9234  167.1233 C.ar    1  UNL1        0.1387
      7 C         139.4412  139.9465  166.5966 C.ar    1  UNL1        0.0366
      8 C         140.0700  139.7602  165.2476 C.ar    1  UNL1       -0.0011
      9 C         139.7368  138.5508  164.4253 C.ar    1  UNL1       -0.0209
     10 C         138.7746  137.5276  164.9520 C.ar    1  UNL1       -0.0011
     11 C         138.1458  137.7139  166.3010 C.ar    1  UNL1        0.0366
     12 C         138.5489  139.9257  169.5192 C.3     1  UNL1        0.2525
     13 O         137.8503  139.1097  168.4723 O.3     1  UNL1       -0.4714
     14 C         143.3229  138.0626  160.5806 C.3     1  UNL1        0.0768
     15 C         144.5256  138.7777  161.1211 C.3     1  UNL1        0.0438
     16 C         144.4378  140.2334  161.4720 C.ar    1  UNL1       -0.0176
     17 C         144.9518  140.7184  162.7951 C.ar    1  UNL1       -0.0009
     18 C         144.8639  142.1741  163.1459 C.ar    1  UNL1        0.0397
     19 C         144.2621  143.1449  162.1736 C.ar    1  UNL1        0.1724
     20 C         143.7481  142.6600  160.8505 C.ar    1  UNL1        0.1721
     21 C         143.8359  141.2042  160.4997 C.ar    1  UNL1        0.0358
     22 O         144.1743  144.6007  162.5245 O.3     1  UNL1       -0.4684
     23 C         143.0102  145.1113  163.3209 C.3     1  UNL1        0.2526
     24 O         143.1462  143.6308  159.8783 O.3     1  UNL1       -0.4684
     25 C         141.6605  143.6650  159.6750 C.3     1  UNL1        0.2526
     26 C         138.1448  138.0932  161.6136 C.3     1  UNL1        0.0080
     27 C         137.3757  139.3386  161.2859 C.3     1  UNL1        0.0458
     28 C         137.7013  140.6263  161.9829 C.2     1  UNL1        0.0586
     29 C         138.4372  141.7898  161.3873 C.2     1  UNL1        0.0159
     30 C         138.5388  142.8592  162.4343 C.2     1  UNL1        0.0151
     31 C         139.1572  144.2256  162.4166 C.2     1  UNL1        0.0018
     32 C         139.1025  145.0895  163.6416 C.2     1  UNL1        0.0075
     33 C         138.4293  144.5869  164.8843 C.2     1  UNL1        0.0414
     34 CL        138.3746  145.4509  166.1093 Cl      1  UNL1       -0.0865
     35 C         137.8108  143.2205  164.9020 C.3     1  UNL1        0.0836
     36 C         137.8656  142.3567  163.6770 C.2     1  UNL1        0.0639
     37 N         137.3480  140.9767  163.3980 N.2     1  UNL1       -0.2536
@<TRIPOS>BOND
     1    12    13    1
     2    13     6    1
     3     6     7   ar
     4     7     8   ar
     5     8     9   ar
     6     1     9    1
     7     1     2    1
     8     2     3    1
     9     3    14    1
    10    14    15    1
    11    15    16    1
    12    16    17   ar
    13    17    18   ar
    14    18    19   ar
    15    19    22    1
    16    22    23    1
    17    19    20   ar
    18    20    24    1
    19    24    25    1
    20    20    21   ar
    21     3     4    1
    22     4     5    1
    23     5    26    1
    24    26    27    1
    25    27    28    1
    26    28    29    2
    27    29    30    1
    28    30    31    2
    29    31    32    1
    30    32    33    2
    31    33    34    1
    32    33    35    1
    33    35    36    1
    34    36    37    2
    35     9    10   ar
    36    10    11   ar
    37    11     6   ar
    38     5     1    1
    39    37    28    1
    40    21    16   ar
    41    36    30    1
@<TRIPOS>MOLECULE
*****
 37 41 0 0 0
SMALL
GASTEIGER

@<TRIPOS>ATOM
      1 C         139.2999  140.7951  161.2220 C.3     1  UNL1        0.0396
      2 C         139.2711  142.2801  161.4318 C.3     1  UNL1        0.0765
      3 N         138.1428  142.5942  162.3688 N.3     1  UNL1       -0.2721
      4 C         137.4741  141.3032  162.7383 C.3     1  UNL1        0.0724
      5 C         138.1893  140.1914  162.0295 C.3     1  UNL1        0.0218
      6 C         142.2076  138.5464  158.6263 C.ar    1  UNL1        0.1387
      7 C         140.8077  138.7911  158.1463 C.ar    1  UNL1        0.0366
      8 C         139.8385  139.5406  159.0116 C.ar    1  UNL1       -0.0011
      9 C         140.2691  140.0456  160.3567 C.ar    1  UNL1       -0.0209
     10 C         141.6691  139.8009  160.8367 C.ar    1  UNL1       -0.0011
     11 C         142.6383  139.0513  159.9715 C.ar    1  UNL1        0.0366
     12 C         142.6777  136.7547  156.8045 C.3     1  UNL1        0.2525
     13 O         143.1768  137.7968  157.7610 O.3     1  UNL1       -0.4714
     14 C         137.7516  143.9594  162.8518 C.3     1  UNL1        0.0768
     15 C         138.5011  144.5979  163.9834 C.3     1  UNL1        0.0438
     16 C         139.8706  144.1063  164.3480 C.ar    1  UNL1       -0.0176
     17 C         140.0311  143.0318  165.3823 C.ar    1  UNL1       -0.0009
     18 C         141.4006  142.5403  165.7467 C.ar    1  UNL1        0.0397
     19 C         142.6096  143.1232  165.0769 C.ar    1  UNL1        0.1724
     20 C         142.4491  144.1977  164.0426 C.ar    1  UNL1        0.1721
     21 C         141.0795  144.6892  163.6782 C.ar    1  UNL1        0.0358
     22 O         143.9791  142.6316  165.4415 O.3     1  UNL1       -0.4684
     23 C         144.5661  141.4496  164.7285 C.3     1  UNL1        0.2526
     24 O         143.6580  144.7806  163.3729 O.3     1  UNL1       -0.4684
     25 C         144.3733  144.0034  162.3079 C.3     1  UNL1        0.2526
     26 C         137.8528  138.7320  162.1134 C.3     1  UNL1        0.0080
     27 C         138.7298  137.8042  162.9009 C.3     1  UNL1        0.0458
     28 C         139.4207  138.2952  164.1385 C.2     1  UNL1        0.0586
     29 C         140.8993  138.2749  164.3898 C.2     1  UNL1        0.0159
     30 C         141.1467  138.8598  165.7487 C.2     1  UNL1        0.0151
     31 C         142.4079  139.0941  166.5262 C.2     1  UNL1        0.0018
     32 C         142.3433  139.7102  167.8922 C.2     1  UNL1        0.0075
     33 C         141.0175  140.0920  168.4809 C.2     1  UNL1        0.0414
     34 CL        140.9529  140.7081  169.8470 Cl      1  UNL1       -0.0865
     35 C         139.7563  139.8577  167.7034 C.3     1  UNL1        0.0836
     36 C         139.8209  139.2416  166.3373 C.2     1  UNL1        0.0639
     37 N         138.7542  138.8927  165.3422 N.2     1  UNL1       -0.2536
@<TRIPOS>BOND
     1    12    13    1
     2    13     6    1
     3     6     7   ar
     4     7     8   ar
     5     8     9   ar
     6     1     9    1
     7     1     2    1
     8     2     3    1
     9     3    14    1
    10    14    15    1
    11    15    16    1
    12    16    17   ar
    13    17    18   ar
    14    18    19   ar
    15    19    22    1
    16    22    23    1
    17    19    20   ar
    18    20    24    1
    19    24    25    1
    20    20    21   ar
    21     3     4    1
    22     4     5    1
    23     5    26    1
    24    26    27    1
    25    27    28    1
    26    28    29    2
    27    29    30    1
    28    30    31    2
    29    31    32    1
    30    32    33    2
    31    33    34    1
    32    33    35    1
    33    35    36    1
    34    36    37    2
    35     9    10   ar
    36    10    11   ar
    37    11     6   ar
    38     5     1    1
    39    37    28    1
    40    21    16   ar
    41    36    30    1
@<TRIPOS>MOLECULE
*****
 37 41 0 0 0
SMALL
GASTEIGER

@<TRIPOS>ATOM
      1 C         141.2761  139.2216  166.1800 C.3     1  UNL1        0.0396
      2 C         139.9239  138.8506  165.6472 C.3     1  UNL1        0.0765
      3 N         140.1235  137.9840  164.4393 N.3     1  UNL1       -0.2721
      4 C         141.5991  137.8194  164.2255 C.3     1  UNL1        0.0724
      5 C         142.3114  138.5844  165.3014 C.3     1  UNL1        0.0218
      6 C         142.0847  141.7948  169.7821 C.ar    1  UNL1        0.1387
      7 C         141.3958  142.3773  168.5837 C.ar    1  UNL1        0.0366
      8 C         141.1263  141.5195  167.3830 C.ar    1  UNL1       -0.0011
      9 C         141.5456  140.0794  167.3807 C.ar    1  UNL1       -0.0209
     10 C         142.2345  139.4968  168.5791 C.ar    1  UNL1       -0.0011
     11 C         142.5040  140.3546  169.7798 C.ar    1  UNL1        0.0366
     12 C         143.4117  143.7146  170.9236 C.3     1  UNL1        0.2525
     13 O         142.3542  142.6525  170.9828 O.3     1  UNL1       -0.4714
     14 C         139.0382  137.3867  163.5935 C.3     1  UNL1        0.0768
     15 C         138.6858  138.0099  162.2754 C.3     1  UNL1        0.0438
     16 C         138.4644  139.4905  162.1811 C.ar    1  UNL1       -0.0176
     17 C         137.7952  140.2220  163.3068 C.ar    1  UNL1       -0.0009
     18 C         137.5739  141.7026  163.2124 C.ar    1  UNL1        0.0397
     19 C         138.0217  142.4517  161.9924 C.ar    1  UNL1        0.1724
     20 C         138.6908  141.7202  160.8668 C.ar    1  UNL1        0.1721
     21 C         138.9122  140.2396  160.9612 C.ar    1  UNL1        0.0358
     22 O         137.8003  143.9322  161.8982 O.3     1  UNL1       -0.4684
     23 C         138.0618  144.8070  163.0883 C.3     1  UNL1        0.2526
     24 O         139.1386  142.4693  159.6468 O.3     1  UNL1       -0.4684
     25 C         138.4650  142.2271  158.3287 C.3     1  UNL1        0.2526
     26 C         143.7981  138.6930  165.4692 C.3     1  UNL1        0.0080
     27 C         144.5709  139.7026  164.6733 C.3     1  UNL1        0.0458
     28 C         143.8866  140.9333  164.1565 C.2     1  UNL1        0.0586
     29 C         143.6812  142.2117  164.9137 C.2     1  UNL1        0.0159
     30 C         142.9552  143.1702  164.0169 C.2     1  UNL1        0.0151
     31 C         142.4842  144.5790  164.2251 C.2     1  UNL1        0.0018
     32 C         141.7700  145.3018  163.1218 C.2     1  UNL1        0.0075
     33 C         141.5266  144.6157  161.8102 C.2     1  UNL1        0.0414
     34 CL        140.8123  145.3386  160.7069 Cl      1  UNL1       -0.0865
     35 C         141.9976  143.2069  161.6020 C.3     1  UNL1        0.0836
     36 C         142.7119  142.4842  162.7054 C.2     1  UNL1        0.0639
     37 N         143.2875  141.1017  162.7916 N.2     1  UNL1       -0.2536
@<TRIPOS>BOND
     1    12    13    1
     2    13     6    1
     3     6     7   ar
     4     7     8   ar
     5     8     9   ar
     6     1     9    1
     7     1     2    1
     8     2     3    1
     9     3    14    1
    10    14    15    1
    11    15    16    1
    12    16    17   ar
    13    17    18   ar
    14    18    19   ar
    15    19    22    1
    16    22    23    1
    17    19    20   ar
    18    20    24    1
    19    24    25    1
    20    20    21   ar
    21     3     4    1
    22     4     5    1
    23     5    26    1
    24    26    27    1
    25    27    28    1
    26    28    29    2
    27    29    30    1
    28    30    31    2
    29    31    32    1
    30    32    33    2
    31    33    34    1
    32    33    35    1
    33    35    36    1
    34    36    37    2
    35     9    10   ar
    36    10    11   ar
    37    11     6   ar
    38     5     1    1
    39    37    28    1
    40    21    16   ar
    41    36    30    1
