@<TRIPOS>MOLECULE
*****
 37 39 0 0 0
SMALL
GASTEIGER

@<TRIPOS>ATOM
      1 C         138.9859  142.5722  161.7706 C.2     1  UNL1        0.2485
      2 O         137.9507  143.6567  161.7271 O.2     1  UNL1       -0.2726
      3 N         140.0048  142.4636  160.6750 N.am    1  UNL1       -0.2823
      4 H         140.6843  141.7518  160.7035 H       1  UNL1        0.1549
      5 C         137.6841  137.9963  161.7162 C.3     1  UNL1        0.0949
      6 C         138.0690  139.4434  161.6289 C.2     1  UNL1        0.2269
      7 O         137.9421  140.1759  160.3261 O.2     1  UNL1       -0.2748
      8 N         138.5809  140.1580  162.8444 N.am    1  UNL1       -0.2655
      9 C         138.7613  139.5600  164.2081 C.3     1  UNL1        0.1206
     10 C         139.2942  140.6285  165.1161 C.ar    1  UNL1       -0.0030
     11 C         139.6630  140.6181  166.5700 C.ar    1  UNL1        0.0155
     12 C         140.1808  141.8662  167.2212 C.ar    1  UNL1        0.1054
     13 C         140.3298  143.1246  166.4186 C.ar    1  UNL1        0.0181
     14 C         139.9610  143.1350  164.9647 C.ar    1  UNL1       -0.0011
     15 C         139.4432  141.8869  164.3135 C.ar    1  UNL1        0.0022
     16 C         139.0024  141.5961  162.9095 C.3     1  UNL1        0.1750
     17 S         140.5496  141.8558  168.6752 S.O2    1  UNL1        0.0104
     18 C         140.9184  141.8456  170.1291 C.3     1  UNL1        0.1816
     19 O         140.7528  140.3710  168.6132 O.2     1  UNL1       -0.1686
     20 O         140.3464  143.3407  168.7372 O.2     1  UNL1       -0.1686
     21 C         139.9884  143.4397  159.5361 C.ar    1  UNL1        0.0503
     22 C         139.2633  143.1000  158.2677 C.ar    1  UNL1        0.0144
     23 C         139.2469  144.0760  157.1287 C.ar    1  UNL1       -0.0002
     24 C         139.9554  145.3917  157.2584 C.ar    1  UNL1        0.0182
     25 C         140.6805  145.7314  158.5268 C.ar    1  UNL1       -0.0002
     26 C         140.6969  144.7553  159.6657 C.ar    1  UNL1        0.0144
     27 C         139.9390  146.3678  156.1195 C.3     1  UNL1        0.2827
     28 O         139.3553  147.4128  157.0234 O.3     1  UNL1       -0.3692
     29 H         139.2195  148.2331  156.5239 H       1  UNL1        0.2112
     30 C         139.9226  147.3438  154.9806 C.3     1  UNL1        0.4311
     31 F         139.9063  148.3198  153.8416 F       1  UNL1       -0.1669
     32 F         138.4228  147.3435  155.0019 F       1  UNL1       -0.1669
     33 F         140.8005  147.4143  154.8860 F       1  UNL1       -0.1669
     34 C         140.5228  145.3227  155.2155 C.3     1  UNL1        0.4311
     35 F         141.1064  144.2777  154.3115 F       1  UNL1       -0.1669
     36 F         139.7947  145.1795  154.7318 F       1  UNL1       -0.1669
     37 F         141.9389  145.1825  155.6897 F       1  UNL1       -0.1669
@<TRIPOS>BOND
     1     5     6    1
     2     6     7    2
     3     6     8   am
     4     8     9    1
     5     9    10    1
     6    10    11   ar
     7    11    12   ar
     8    12    17    1
     9    17    18    1
    10    17    19    2
    11    17    20    2
    12    12    13   ar
    13    13    14   ar
    14    14    15   ar
    15    15    16    1
    16    16     1    1
    17     1     2    2
    18     1     3   am
    19     3    21    1
    20    21    22   ar
    21    22    23   ar
    22    23    24   ar
    23    24    27    1
    24    27    28    1
    25    27    30    1
    26    30    31    1
    27    30    32    1
    28    30    33    1
    29    27    34    1
    30    34    35    1
    31    34    36    1
    32    34    37    1
    33    24    25   ar
    34    25    26   ar
    35    16     8    1
    36    26    21   ar
    37    15    10   ar
    38     3     4    1
    39    28    29    1
@<TRIPOS>MOLECULE
*****
 37 39 0 0 0
SMALL
GASTEIGER

@<TRIPOS>ATOM
      1 C         143.1757  141.2809  159.1299 C.2     1  UNL1        0.2485
      2 O         143.9493  141.2560  160.4148 O.2     1  UNL1       -0.2726
      3 N         141.8064  141.8921  159.0907 N.am    1  UNL1       -0.2823
      4 H         141.2986  141.9085  158.2474 H       1  UNL1        0.1549
      5 C         141.6556  137.5099  156.6592 C.3     1  UNL1        0.0949
      6 C         142.0528  138.6826  157.5059 C.2     1  UNL1        0.2269
      7 O         141.2475  139.0377  158.7205 O.2     1  UNL1       -0.2748
      8 N         143.2552  139.5004  157.1378 N.am    1  UNL1       -0.2655
      9 C         144.1526  139.2674  155.9587 C.3     1  UNL1        0.1206
     10 C         145.2234  140.3177  155.9764 C.ar    1  UNL1       -0.0030
     11 C         146.3825  140.5848  155.0627 C.ar    1  UNL1        0.0155
     12 C         147.3060  141.7340  155.3390 C.ar    1  UNL1        0.1054
     13 C         147.0704  142.6161  156.5291 C.ar    1  UNL1        0.0181
     14 C         145.9113  142.3490  157.4429 C.ar    1  UNL1       -0.0011
     15 C         144.9878  141.1998  157.1666 C.ar    1  UNL1        0.0022
     16 C         143.7714  140.6947  157.8843 C.3     1  UNL1        0.1750
     17 S         148.4652  142.0012  154.4252 S.O2    1  UNL1        0.0104
     18 C         149.6244  142.2683  153.5115 C.3     1  UNL1        0.1816
     19 O         147.5133  142.3139  153.3090 O.2     1  UNL1       -0.1686
     20 O         149.4172  141.6885  155.5414 O.2     1  UNL1       -0.1686
     21 C         141.2107  142.4784  160.3363 C.ar    1  UNL1        0.0503
     22 C         141.0132  143.9612  160.4471 C.ar    1  UNL1        0.0144
     23 C         140.4176  144.5474  161.6927 C.ar    1  UNL1       -0.0002
     24 C         140.0195  143.6508  162.8274 C.ar    1  UNL1        0.0182
     25 C         140.2170  142.1680  162.7165 C.ar    1  UNL1       -0.0002
     26 C         140.8126  141.5818  161.4709 C.ar    1  UNL1        0.0144
     27 C         139.4238  144.2370  164.0731 C.3     1  UNL1        0.2827
     28 O         140.6394  145.0979  164.2494 O.3     1  UNL1       -0.3692
     29 H         140.5383  145.6408  165.0468 H       1  UNL1        0.2112
     30 C         138.8281  144.8231  165.3187 C.3     1  UNL1        0.4311
     31 F         138.2323  145.4092  166.5643 F       1  UNL1       -0.1669
     32 F         139.8267  144.0728  166.1493 F       1  UNL1       -0.1669
     33 F         138.1999  145.3050  164.9216 F       1  UNL1       -0.1669
     34 C         138.2082  143.3761  163.8968 C.3     1  UNL1        0.4311
     35 F         136.9925  142.5151  163.7206 F       1  UNL1       -0.1669
     36 F         138.3843  142.8054  164.5509 F       1  UNL1       -0.1669
     37 F         137.4776  144.0099  162.7502 F       1  UNL1       -0.1669
@<TRIPOS>BOND
     1     5     6    1
     2     6     7    2
     3     6     8   am
     4     8     9    1
     5     9    10    1
     6    10    11   ar
     7    11    12   ar
     8    12    17    1
     9    17    18    1
    10    17    19    2
    11    17    20    2
    12    12    13   ar
    13    13    14   ar
    14    14    15   ar
    15    15    16    1
    16    16     1    1
    17     1     2    2
    18     1     3   am
    19     3    21    1
    20    21    22   ar
    21    22    23   ar
    22    23    24   ar
    23    24    27    1
    24    27    28    1
    25    27    30    1
    26    30    31    1
    27    30    32    1
    28    30    33    1
    29    27    34    1
    30    34    35    1
    31    34    36    1
    32    34    37    1
    33    24    25   ar
    34    25    26   ar
    35    16     8    1
    36    26    21   ar
    37    15    10   ar
    38     3     4    1
    39    28    29    1
@<TRIPOS>MOLECULE
*****
 37 39 0 0 0
SMALL
GASTEIGER

@<TRIPOS>ATOM
      1 C         142.5507  137.9815  158.2035 C.2     1  UNL1        0.2485
      2 O         143.7144  138.8796  157.9055 O.2     1  UNL1       -0.2726
      3 N         141.9017  138.0184  159.5554 N.am    1  UNL1       -0.2823
      4 H         141.1379  137.4289  159.7511 H       1  UNL1        0.1549
      5 C         138.8409  138.6171  155.2933 C.3     1  UNL1        0.0949
      6 C         139.9890  138.5134  156.2530 C.2     1  UNL1        0.2269
      7 O         140.2678  139.6321  157.2125 O.2     1  UNL1       -0.2748
      8 N         140.8582  137.2909  156.2531 N.am    1  UNL1       -0.2655
      9 C         140.7027  136.0983  155.3568 C.3     1  UNL1        0.1206
     10 C         141.7840  135.1167  155.6993 C.ar    1  UNL1       -0.0030
     11 C         142.1248  133.7651  155.1454 C.ar    1  UNL1        0.0155
     12 C         143.2895  132.9995  155.6996 C.ar    1  UNL1        0.1054
     13 C         144.1134  133.5854  156.8077 C.ar    1  UNL1        0.0181
     14 C         143.7726  134.9371  157.3616 C.ar    1  UNL1       -0.0011
     15 C         142.6078  135.7027  156.8074 C.ar    1  UNL1        0.0022
     16 C         142.0357  137.0464  157.1497 C.3     1  UNL1        0.1750
     17 S         143.6304  131.6477  155.1457 S.O2    1  UNL1        0.0104
     18 C         143.9714  130.2961  154.5918 C.3     1  UNL1        0.1816
     19 O         142.2686  131.5593  154.5233 O.2     1  UNL1       -0.1686
     20 O         144.9923  131.7362  155.7681 O.2     1  UNL1       -0.1686
     21 C         142.4167  138.9534  160.6093 C.ar    1  UNL1        0.0503
     22 C         141.7730  140.2946  160.8014 C.ar    1  UNL1        0.0144
     23 C         142.2879  141.2296  161.8552 C.ar    1  UNL1       -0.0002
     24 C         143.4466  140.8234  162.7168 C.ar    1  UNL1        0.0182
     25 C         144.0903  139.4823  162.5247 C.ar    1  UNL1       -0.0002
     26 C         143.5753  138.5472  161.4709 C.ar    1  UNL1        0.0144
     27 C         143.9616  141.7584  163.7707 C.3     1  UNL1        0.2827
     28 O         143.5224  140.7989  164.8368 O.3     1  UNL1       -0.3692
     29 H         143.7417  141.1622  165.7090 H       1  UNL1        0.2112
     30 C         144.4767  142.6935  164.8245 C.3     1  UNL1        0.4311
     31 F         144.9917  143.6285  165.8782 F       1  UNL1       -0.1669
     32 F         143.0730  142.9381  165.2934 F       1  UNL1       -0.1669
     33 F         145.3364  142.6174  164.6255 F       1  UNL1       -0.1669
     34 C         144.4009  142.7179  162.7046 C.3     1  UNL1        0.4311
     35 F         144.8400  143.6775  161.6386 F       1  UNL1       -0.1669
     36 F         143.7858  143.3370  162.8565 F       1  UNL1       -0.1669
     37 F         145.5777  142.0396  162.0682 F       1  UNL1       -0.1669
@<TRIPOS>BOND
     1     5     6    1
     2     6     7    2
     3     6     8   am
     4     8     9    1
     5     9    10    1
     6    10    11   ar
     7    11    12   ar
     8    12    17    1
     9    17    18    1
    10    17    19    2
    11    17    20    2
    12    12    13   ar
    13    13    14   ar
    14    14    15   ar
    15    15    16    1
    16    16     1    1
    17     1     2    2
    18     1     3   am
    19     3    21    1
    20    21    22   ar
    21    22    23   ar
    22    23    24   ar
    23    24    27    1
    24    27    28    1
    25    27    30    1
    26    30    31    1
    27    30    32    1
    28    30    33    1
    29    27    34    1
    30    34    35    1
    31    34    36    1
    32    34    37    1
    33    24    25   ar
    34    25    26   ar
    35    16     8    1
    36    26    21   ar
    37    15    10   ar
    38     3     4    1
    39    28    29    1
@<TRIPOS>MOLECULE
*****
 37 39 0 0 0
SMALL
GASTEIGER

@<TRIPOS>ATOM
      1 C         140.5882  139.0781  161.6643 C.2     1  UNL1        0.2485
      2 O         140.0922  137.6626  161.6700 O.2     1  UNL1       -0.2726
      3 N         141.2975  139.6195  160.4584 N.am    1  UNL1       -0.2823
      4 H         141.6231  140.5486  160.4547 H       1  UNL1        0.1549
      5 C         137.9012  142.9910  161.9888 C.3     1  UNL1        0.0949
      6 C         138.7182  141.7499  161.7834 C.2     1  UNL1        0.2269
      7 O         138.7379  141.0784  160.4424 O.2     1  UNL1       -0.2748
      8 N         139.5156  141.1805  162.9192 N.am    1  UNL1       -0.2655
      9 C         139.5935  141.7391  164.3091 C.3     1  UNL1        0.1206
     10 C         140.5011  140.8563  165.1134 C.ar    1  UNL1       -0.0030
     11 C         140.9501  140.9152  166.5433 C.ar    1  UNL1        0.0155
     12 C         141.8822  139.8699  167.0805 C.ar    1  UNL1        0.1054
     13 C         142.3653  138.7657  166.1876 C.ar    1  UNL1        0.0181
     14 C         141.9163  138.7067  164.7576 C.ar    1  UNL1       -0.0011
     15 C         140.9842  139.7520  164.2205 C.ar    1  UNL1        0.0022
     16 C         140.3752  139.9524  162.8644 C.3     1  UNL1        0.1750
     17 S         142.3312  139.9289  168.5105 S.O2    1  UNL1        0.0104
     18 C         142.7802  139.9878  169.9405 C.3     1  UNL1        0.1816
     19 O         141.4452  141.1173  168.7398 O.2     1  UNL1       -0.1686
     20 O         143.2172  138.7405  168.2812 O.2     1  UNL1       -0.1686
     21 C         141.5105  138.7452  159.2583 C.ar    1  UNL1        0.0503
     22 C         142.6850  137.8135  159.2081 C.ar    1  UNL1        0.0144
     23 C         142.8981  136.9392  158.0080 C.ar    1  UNL1       -0.0002
     24 C         141.9367  136.9968  156.8581 C.ar    1  UNL1        0.0182
     25 C         140.7622  137.9285  156.9083 C.ar    1  UNL1       -0.0002
     26 C         140.5491  138.8027  158.1084 C.ar    1  UNL1        0.0144
     27 C         142.1497  136.1225  155.6580 C.3     1  UNL1        0.2827
     28 O         140.7628  135.5724  155.8124 O.3     1  UNL1       -0.3692
     29 H         140.5937  134.9208  155.1140 H       1  UNL1        0.2112
     30 C         142.3628  135.2483  154.4578 C.3     1  UNL1        0.4311
     31 F         142.5758  134.3741  153.2576 F       1  UNL1       -0.1669
     32 F         142.2745  134.0306  155.3291 F       1  UNL1       -0.1669
     33 F         142.4298  135.8991  153.8607 F       1  UNL1       -0.1669
     34 C         143.5366  136.6726  155.5035 C.3     1  UNL1        0.4311
     35 F         144.9235  137.2227  155.3490 F       1  UNL1       -0.1669
     36 F         143.9709  135.9413  155.7506 F       1  UNL1       -0.1669
     37 F         143.3184  138.0820  155.0386 F       1  UNL1       -0.1669
@<TRIPOS>BOND
     1     5     6    1
     2     6     7    2
     3     6     8   am
     4     8     9    1
     5     9    10    1
     6    10    11   ar
     7    11    12   ar
     8    12    17    1
     9    17    18    1
    10    17    19    2
    11    17    20    2
    12    12    13   ar
    13    13    14   ar
    14    14    15   ar
    15    15    16    1
    16    16     1    1
    17     1     2    2
    18     1     3   am
    19     3    21    1
    20    21    22   ar
    21    22    23   ar
    22    23    24   ar
    23    24    27    1
    24    27    28    1
    25    27    30    1
    26    30    31    1
    27    30    32    1
    28    30    33    1
    29    27    34    1
    30    34    35    1
    31    34    36    1
    32    34    37    1
    33    24    25   ar
    34    25    26   ar
    35    16     8    1
    36    26    21   ar
    37    15    10   ar
    38     3     4    1
    39    28    29    1
@<TRIPOS>MOLECULE
*****
 37 39 0 0 0
SMALL
GASTEIGER

@<TRIPOS>ATOM
      1 C         141.6174  139.0357  158.6678 C.2     1  UNL1        0.2485
      2 O         142.3537  138.1180  159.5982 O.2     1  UNL1       -0.2726
      3 N         140.4220  139.7985  159.1571 N.am    1  UNL1       -0.2823
      4 H         139.9387  140.4008  158.5465 H       1  UNL1        0.1549
      5 C         139.4977  137.4354  154.7204 C.3     1  UNL1        0.0949
      6 C         140.0853  137.8964  156.0213 C.2     1  UNL1        0.2269
      7 O         139.3860  137.5868  157.3116 O.2     1  UNL1       -0.2748
      8 N         141.3722  138.6670  156.0317 N.am    1  UNL1       -0.2655
      9 C         142.1808  139.0493  154.8276 C.3     1  UNL1        0.1206
     10 C         143.3847  139.8092  155.2998 C.ar    1  UNL1       -0.0030
     11 C         144.5314  140.4329  154.5608 C.ar    1  UNL1        0.0155
     12 C         145.6136  141.1439  155.3179 C.ar    1  UNL1        0.1054
     13 C         145.5491  141.2313  156.8140 C.ar    1  UNL1        0.0181
     14 C         144.4024  140.6077  157.5530 C.ar    1  UNL1       -0.0011
     15 C         143.3202  139.8966  156.7959 C.ar    1  UNL1        0.0022
     16 C         142.0764  139.1907  157.2482 C.3     1  UNL1        0.1750
     17 S         146.7604  141.7677  154.5790 S.O2    1  UNL1        0.0104
     18 C         147.9071  142.3914  153.8401 C.3     1  UNL1        0.1816
     19 O         146.2392  141.2008  153.2917 O.2     1  UNL1       -0.1686
     20 O         147.2815  142.3345  155.8662 O.2     1  UNL1       -0.1686
     21 C         139.9631  139.6434  160.5767 C.ar    1  UNL1        0.0503
     22 C         138.8169  138.7311  160.8990 C.ar    1  UNL1        0.0144
     23 C         138.3579  138.5761  162.3187 C.ar    1  UNL1       -0.0002
     24 C         139.0451  139.3334  163.4159 C.ar    1  UNL1        0.0182
     25 C         140.1913  140.2458  163.0936 C.ar    1  UNL1       -0.0002
     26 C         140.6503  140.4008  161.6740 C.ar    1  UNL1        0.0144
     27 C         138.5862  139.1785  164.8356 C.3     1  UNL1        0.2827
     28 O         137.6994  140.3782  164.6800 O.3     1  UNL1       -0.3692
     29 H         137.2284  140.5423  165.5119 H       1  UNL1        0.2112
     30 C         138.1274  139.0235  166.2552 C.3     1  UNL1        0.4311
     31 F         137.6685  138.8684  167.6749 F       1  UNL1       -0.1669
     32 F         138.8668  140.2734  166.6307 F       1  UNL1       -0.1669
     33 F         137.6610  138.2798  166.1374 F       1  UNL1       -0.1669
     34 C         139.4731  137.9788  164.9912 C.3     1  UNL1        0.4311
     35 F         140.3599  136.7790  165.1468 F       1  UNL1       -0.1669
     36 F         138.9366  137.3958  164.5950 F       1  UNL1       -0.1669
     37 F         140.6815  138.5105  165.7033 F       1  UNL1       -0.1669
@<TRIPOS>BOND
     1     5     6    1
     2     6     7    2
     3     6     8   am
     4     8     9    1
     5     9    10    1
     6    10    11   ar
     7    11    12   ar
     8    12    17    1
     9    17    18    1
    10    17    19    2
    11    17    20    2
    12    12    13   ar
    13    13    14   ar
    14    14    15   ar
    15    15    16    1
    16    16     1    1
    17     1     2    2
    18     1     3   am
    19     3    21    1
    20    21    22   ar
    21    22    23   ar
    22    23    24   ar
    23    24    27    1
    24    27    28    1
    25    27    30    1
    26    30    31    1
    27    30    32    1
    28    30    33    1
    29    27    34    1
    30    34    35    1
    31    34    36    1
    32    34    37    1
    33    24    25   ar
    34    25    26   ar
    35    16     8    1
    36    26    21   ar
    37    15    10   ar
    38     3     4    1
    39    28    29    1
@<TRIPOS>MOLECULE
*****
 37 39 0 0 0
SMALL
GASTEIGER

@<TRIPOS>ATOM
      1 C         142.6447  138.1636  157.3130 C.2     1  UNL1        0.2485
      2 O         141.4927  138.2673  158.2680 O.2     1  UNL1       -0.2726
      3 N         143.8050  139.1068  157.4322 N.am    1  UNL1       -0.2823
      4 H         144.5611  139.0388  156.8054 H       1  UNL1        0.1549
      5 C         141.5064  138.6949  152.7241 C.3     1  UNL1        0.0949
      6 C         141.8451  138.6322  154.1840 C.2     1  UNL1        0.2269
      7 O         141.7599  139.8697  155.0274 O.2     1  UNL1       -0.2748
      8 N         142.2689  137.3321  154.8005 N.am    1  UNL1       -0.2655
      9 C         142.3997  136.0192  154.0871 C.3     1  UNL1        0.1206
     10 C         142.8480  134.9923  155.0843 C.ar    1  UNL1       -0.0030
     11 C         143.1419  133.5273  154.9533 C.ar    1  UNL1        0.0155
     12 C         143.5821  132.7405  156.1521 C.ar    1  UNL1        0.1054
     13 C         143.7285  133.4189  157.4820 C.ar    1  UNL1        0.0181
     14 C         143.4346  134.8839  157.6130 C.ar    1  UNL1       -0.0011
     15 C         142.9943  135.6706  156.4142 C.ar    1  UNL1        0.0022
     16 C         142.6364  137.1167  156.2387 C.3     1  UNL1        0.1750
     17 S         143.8760  131.2754  156.0212 S.O2    1  UNL1        0.0104
     18 C         144.1699  129.8103  155.8902 C.3     1  UNL1        0.1816
     19 O         145.3460  131.5631  156.1012 O.2     1  UNL1       -0.1686
     20 O         142.4061  130.9877  155.9411 O.2     1  UNL1       -0.1686
     21 C         143.8132  140.1537  158.5065 C.ar    1  UNL1        0.0503
     22 C         143.9233  141.6040  158.1396 C.ar    1  UNL1        0.0144
     23 C         143.9315  142.6508  159.2138 C.ar    1  UNL1       -0.0002
     24 C         143.8296  142.2474  160.6549 C.ar    1  UNL1        0.0182
     25 C         143.7195  140.7971  161.0218 C.ar    1  UNL1       -0.0002
     26 C         143.7113  139.7502  159.9475 C.ar    1  UNL1        0.0144
     27 C         143.8378  143.2942  161.7293 C.3     1  UNL1        0.2827
     28 O         142.7346  144.0264  161.0244 O.3     1  UNL1       -0.3692
     29 H         142.5018  144.8224  161.5275 H       1  UNL1        0.2112
     30 C         143.8460  144.3409  162.8036 C.3     1  UNL1        0.4311
     31 F         143.8543  145.3877  163.8780 F       1  UNL1       -0.1669
     32 F         142.4975  143.8757  163.2673 F       1  UNL1       -0.1669
     33 F         144.6370  144.6890  162.6092 F       1  UNL1       -0.1669
     34 C         144.9410  142.5620  162.4341 C.3     1  UNL1        0.4311
     35 F         146.0443  141.8298  163.1389 F       1  UNL1       -0.1669
     36 F         145.5527  142.6520  161.7999 F       1  UNL1       -0.1669
     37 F         144.3268  142.1486  163.7387 F       1  UNL1       -0.1669
@<TRIPOS>BOND
     1     5     6    1
     2     6     7    2
     3     6     8   am
     4     8     9    1
     5     9    10    1
     6    10    11   ar
     7    11    12   ar
     8    12    17    1
     9    17    18    1
    10    17    19    2
    11    17    20    2
    12    12    13   ar
    13    13    14   ar
    14    14    15   ar
    15    15    16    1
    16    16     1    1
    17     1     2    2
    18     1     3   am
    19     3    21    1
    20    21    22   ar
    21    22    23   ar
    22    23    24   ar
    23    24    27    1
    24    27    28    1
    25    27    30    1
    26    30    31    1
    27    30    32    1
    28    30    33    1
    29    27    34    1
    30    34    35    1
    31    34    36    1
    32    34    37    1
    33    24    25   ar
    34    25    26   ar
    35    16     8    1
    36    26    21   ar
    37    15    10   ar
    38     3     4    1
    39    28    29    1
@<TRIPOS>MOLECULE
*****
 37 39 0 0 0
SMALL
GASTEIGER

@<TRIPOS>ATOM
      1 C         141.6841  142.5738  162.4791 C.2     1  UNL1        0.2485
      2 O         140.9828  141.2727  162.7342 O.2     1  UNL1       -0.2726
      3 N         142.1401  143.4186  163.6318 N.am    1  UNL1       -0.2823
      4 H         142.6005  144.2726  163.4644 H       1  UNL1        0.1549
      5 C         139.8646  146.3821  160.2832 C.3     1  UNL1        0.0949
      6 C         140.3825  145.2100  161.0630 C.2     1  UNL1        0.2269
      7 O         139.9516  145.0061  162.4851 O.2     1  UNL1       -0.2748
      8 N         141.3313  144.2420  160.4206 N.am    1  UNL1       -0.2655
      9 C         141.8483  144.3156  159.0144 C.3     1  UNL1        0.1206
     10 C         142.7662  143.1495  158.7963 C.ar    1  UNL1       -0.0030
     11 C         143.5627  142.7083  157.6043 C.ar    1  UNL1        0.0155
     12 C         144.4095  141.4728  157.6837 C.ar    1  UNL1        0.1054
     13 C         144.4597  140.6783  158.9550 C.ar    1  UNL1        0.0181
     14 C         143.6631  141.1194  160.1470 C.ar    1  UNL1       -0.0011
     15 C         142.8164  142.3550  160.0677 C.ar    1  UNL1        0.0022
     16 C         141.9296  143.0302  161.0715 C.3     1  UNL1        0.1750
     17 S         145.2061  141.0316  156.4916 S.O2    1  UNL1        0.0104
     18 C         146.0026  140.5905  155.2997 C.3     1  UNL1        0.1816
     19 O         144.6953  139.6323  156.6682 O.2     1  UNL1       -0.1686
     20 O         145.7168  142.4308  156.3151 O.2     1  UNL1       -0.1686
     21 C         141.8947  142.9621  165.0394 C.ar    1  UNL1        0.0503
     22 C         143.0175  142.3794  165.8455 C.ar    1  UNL1        0.0144
     23 C         142.7721  141.9230  167.2531 C.ar    1  UNL1       -0.0002
     24 C         141.4038  142.0493  167.8546 C.ar    1  UNL1        0.0182
     25 C         140.2810  142.6320  167.0486 C.ar    1  UNL1       -0.0002
     26 C         140.5264  143.0885  165.6409 C.ar    1  UNL1        0.0144
     27 C         141.1583  141.5929  169.2623 C.3     1  UNL1        0.2827
     28 O         141.4948  140.1861  168.8649 O.3     1  UNL1       -0.3692
     29 H         141.4177  139.6047  169.6375 H       1  UNL1        0.2112
     30 C         140.9128  141.1365  170.6699 C.3     1  UNL1        0.4311
     31 F         140.6673  140.6802  172.0776 F       1  UNL1       -0.1669
     32 F         139.6063  140.5334  170.2465 F       1  UNL1       -0.1669
     33 F         141.6608  141.4571  171.0195 F       1  UNL1       -0.1669
     34 C         140.8218  142.9996  169.6596 C.3     1  UNL1        0.4311
     35 F         140.4852  144.4063  170.0569 F       1  UNL1       -0.1669
     36 F         139.9411  142.9166  169.6149 F       1  UNL1       -0.1669
     37 F         142.1583  143.6450  169.8771 F       1  UNL1       -0.1669
@<TRIPOS>BOND
     1     5     6    1
     2     6     7    2
     3     6     8   am
     4     8     9    1
     5     9    10    1
     6    10    11   ar
     7    11    12   ar
     8    12    17    1
     9    17    18    1
    10    17    19    2
    11    17    20    2
    12    12    13   ar
    13    13    14   ar
    14    14    15   ar
    15    15    16    1
    16    16     1    1
    17     1     2    2
    18     1     3   am
    19     3    21    1
    20    21    22   ar
    21    22    23   ar
    22    23    24   ar
    23    24    27    1
    24    27    28    1
    25    27    30    1
    26    30    31    1
    27    30    32    1
    28    30    33    1
    29    27    34    1
    30    34    35    1
    31    34    36    1
    32    34    37    1
    33    24    25   ar
    34    25    26   ar
    35    16     8    1
    36    26    21   ar
    37    15    10   ar
    38     3     4    1
    39    28    29    1
@<TRIPOS>MOLECULE
*****
 37 39 0 0 0
SMALL
GASTEIGER

@<TRIPOS>ATOM
      1 C         141.4642  141.1733  162.0114 C.2     1  UNL1        0.2485
      2 O         140.2544  140.4653  162.5450 O.2     1  UNL1       -0.2726
      3 N         142.4216  141.8380  162.9558 N.am    1  UNL1       -0.2823
      4 H         143.2157  142.3027  162.6056 H       1  UNL1        0.1549
      5 C         141.2982  144.9544  159.1284 C.3     1  UNL1        0.0949
      6 C         141.3245  143.8280  160.1185 C.2     1  UNL1        0.2269
      7 O         141.0227  144.0926  161.5638 O.2     1  UNL1       -0.2748
      8 N         141.6527  142.4369  159.6634 N.am    1  UNL1       -0.2655
      9 C         141.9743  142.0217  158.2584 C.3     1  UNL1        0.1206
     10 C         142.2372  140.5449  158.2600 C.ar    1  UNL1       -0.0030
     11 C         142.6010  139.5890  157.1628 C.ar    1  UNL1        0.0155
     12 C         142.8056  138.1355  157.4717 C.ar    1  UNL1        0.1054
     13 C         142.6466  137.6380  158.8778 C.ar    1  UNL1        0.0181
     14 C         142.2828  138.5939  159.9750 C.ar    1  UNL1       -0.0011
     15 C         142.0782  140.0474  159.6661 C.ar    1  UNL1        0.0022
     16 C         141.7169  141.2166  160.5334 C.3     1  UNL1        0.1750
     17 S         143.1694  137.1795  156.3745 S.O2    1  UNL1        0.0104
     18 C         143.5331  136.2235  155.2774 C.3     1  UNL1        0.1816
     19 O         144.3751  138.0106  156.0500 O.2     1  UNL1       -0.1686
     20 O         141.9636  136.3484  156.6990 O.2     1  UNL1       -0.1686
     21 C         142.1689  141.7947  164.4337 C.ar    1  UNL1        0.0503
     22 C         142.8593  140.7689  165.2829 C.ar    1  UNL1        0.0144
     23 C         142.6066  140.7255  166.7608 C.ar    1  UNL1       -0.0002
     24 C         141.6635  141.7080  167.3895 C.ar    1  UNL1        0.0182
     25 C         140.9731  142.7338  166.5403 C.ar    1  UNL1       -0.0002
     26 C         141.2258  142.7771  165.0624 C.ar    1  UNL1        0.0144
     27 C         141.4108  141.6647  168.8675 C.3     1  UNL1        0.2827
     28 O         139.9875  141.2655  168.6125 O.3     1  UNL1       -0.3692
     29 H         139.5267  141.1530  169.4586 H       1  UNL1        0.2112
     30 C         141.1581  141.6214  170.3454 C.3     1  UNL1        0.4311
     31 F         140.9055  141.5782  171.8233 F       1  UNL1       -0.1669
     32 F         140.9241  140.1421  170.2621 F       1  UNL1       -0.1669
     33 F         141.2770  142.4853  170.5007 F       1  UNL1       -0.1669
     34 C         142.8340  142.0639  169.1224 C.3     1  UNL1        0.4311
     35 F         144.2573  142.4633  169.3774 F       1  UNL1       -0.1669
     36 F         142.7721  142.8903  168.8094 F       1  UNL1       -0.1669
     37 F         143.4506  140.8402  169.7327 F       1  UNL1       -0.1669
@<TRIPOS>BOND
     1     5     6    1
     2     6     7    2
     3     6     8   am
     4     8     9    1
     5     9    10    1
     6    10    11   ar
     7    11    12   ar
     8    12    17    1
     9    17    18    1
    10    17    19    2
    11    17    20    2
    12    12    13   ar
    13    13    14   ar
    14    14    15   ar
    15    15    16    1
    16    16     1    1
    17     1     2    2
    18     1     3   am
    19     3    21    1
    20    21    22   ar
    21    22    23   ar
    22    23    24   ar
    23    24    27    1
    24    27    28    1
    25    27    30    1
    26    30    31    1
    27    30    32    1
    28    30    33    1
    29    27    34    1
    30    34    35    1
    31    34    36    1
    32    34    37    1
    33    24    25   ar
    34    25    26   ar
    35    16     8    1
    36    26    21   ar
    37    15    10   ar
    38     3     4    1
    39    28    29    1
@<TRIPOS>MOLECULE
*****
 37 39 0 0 0
SMALL
GASTEIGER

@<TRIPOS>ATOM
      1 C         141.9138  142.3285  161.9667 C.2     1  UNL1        0.2485
      2 O         143.0664  143.1276  162.4983 O.2     1  UNL1       -0.2726
      3 N         140.9754  141.6431  162.9153 N.am    1  UNL1       -0.2823
      4 H         140.2189  141.1186  162.5664 H       1  UNL1        0.1549
      5 C         142.5125  138.4946  159.2137 C.3     1  UNL1        0.0949
      6 C         142.3543  139.6431  160.1655 C.2     1  UNL1        0.2269
      7 O         142.6484  139.4544  161.6242 O.2     1  UNL1       -0.2748
      8 N         141.9019  140.9804  159.6585 N.am    1  UNL1       -0.2655
      9 C         141.5725  141.3182  158.2347 C.3     1  UNL1        0.1206
     10 C         141.1665  142.7613  158.1825 C.ar    1  UNL1       -0.0030
     11 C         140.7355  143.6423  157.0477 C.ar    1  UNL1        0.0155
     12 C         140.3829  145.0775  157.3045 C.ar    1  UNL1        0.1054
     13 C         140.4614  145.6316  158.6962 C.ar    1  UNL1        0.0181
     14 C         140.8924  144.7505  159.8311 C.ar    1  UNL1       -0.0011
     15 C         141.2449  143.3154  159.5742 C.ar    1  UNL1        0.0022
     16 C         141.6994  142.2148  160.4864 C.3     1  UNL1        0.1750
     17 S         139.9519  145.9586  156.1696 S.O2    1  UNL1        0.0104
     18 C         139.5209  146.8396  155.0347 C.3     1  UNL1        0.1816
     19 O         139.4876  146.9944  157.1501 O.2     1  UNL1       -0.1686
     20 O         140.4162  144.9227  155.1891 O.2     1  UNL1       -0.1686
     21 C         141.1898  141.7569  164.3955 C.ar    1  UNL1        0.0503
     22 C         140.3473  142.6973  165.2053 C.ar    1  UNL1        0.0144
     23 C         140.5617  142.8111  166.6855 C.ar    1  UNL1       -0.0002
     24 C         141.6186  141.9844  167.3559 C.ar    1  UNL1        0.0182
     25 C         142.4612  141.0440  166.5461 C.ar    1  UNL1       -0.0002
     26 C         142.2468  140.9302  165.0659 C.ar    1  UNL1        0.0144
     27 C         141.8331  142.0981  168.8362 C.3     1  UNL1        0.2827
     28 O         143.1944  142.6799  168.5944 O.3     1  UNL1       -0.3692
     29 H         143.6185  142.8747  169.4447 H       1  UNL1        0.2112
     30 C         142.0475  142.2118  170.3164 C.3     1  UNL1        0.4311
     31 F         142.2618  142.3255  171.7967 F       1  UNL1       -0.1669
     32 F         142.0968  143.7061  170.1945 F       1  UNL1       -0.1669
     33 F         142.0340  141.3443  170.4945 F       1  UNL1       -0.1669
     34 C         140.4718  141.5164  169.0780 C.3     1  UNL1        0.4311
     35 F         139.1105  140.9345  169.3198 F       1  UNL1       -0.1669
     36 F         140.6397  140.7099  168.7523 F       1  UNL1       -0.1669
     37 F         139.7023  142.6412  169.7045 F       1  UNL1       -0.1669
@<TRIPOS>BOND
     1     5     6    1
     2     6     7    2
     3     6     8   am
     4     8     9    1
     5     9    10    1
     6    10    11   ar
     7    11    12   ar
     8    12    17    1
     9    17    18    1
    10    17    19    2
    11    17    20    2
    12    12    13   ar
    13    13    14   ar
    14    14    15   ar
    15    15    16    1
    16    16     1    1
    17     1     2    2
    18     1     3   am
    19     3    21    1
    20    21    22   ar
    21    22    23   ar
    22    23    24   ar
    23    24    27    1
    24    27    28    1
    25    27    30    1
    26    30    31    1
    27    30    32    1
    28    30    33    1
    29    27    34    1
    30    34    35    1
    31    34    36    1
    32    34    37    1
    33    24    25   ar
    34    25    26   ar
    35    16     8    1
    36    26    21   ar
    37    15    10   ar
    38     3     4    1
    39    28    29    1
