@<TRIPOS>MOLECULE
*****
 33 36 0 0 0
SMALL
GASTEIGER

@<TRIPOS>ATOM
      1 C         139.2455  138.5376  162.8370 C.ar    1  UNL1        0.2307
      2 N         140.3132  137.7730  162.1123 N.ar    1  UNL1       -0.1892
      3 C         140.9227  138.3368  160.8630 C.ar    1  UNL1        0.2029
      4 N         140.4643  139.6653  160.3385 N.ar    1  UNL1       -0.2046
      5 C         139.3966  140.4299  161.0632 C.ar    1  UNL1        0.1716
      6 C         138.7872  139.8660  162.3125 C.ar    1  UNL1        0.1098
      7 C         137.7608  140.8411  162.8085 C.ar    1  UNL1        0.1283
      8 N         137.7360  142.0076  161.8658 N.ar    1  UNL1       -0.1619
      9 N         138.7469  141.7534  160.7872 N.ar    1  UNL1       -0.2097
     10 C         139.0543  142.6631  159.6348 C.ar    1  UNL1        0.1118
     11 C         139.9176  143.8719  159.8430 C.ar    1  UNL1        0.0228
     12 C         140.2249  144.7816  158.6906 C.ar    1  UNL1        0.0200
     13 C         139.6689  144.4825  157.3299 C.ar    1  UNL1        0.1081
     14 C         138.8056  143.2736  157.1217 C.ar    1  UNL1        0.0495
     15 C         138.4983  142.3639  158.2741 C.ar    1  UNL1        0.1590
     16 F         137.6350  141.1551  158.0658 F       1  UNL1       -0.2025
     17 S         139.9763  145.3921  156.1775 S.O2    1  UNL1        0.0105
     18 C         140.2836  146.3018  155.0251 C.3     1  UNL1        0.1816
     19 O         140.1380  144.2010  155.2803 O.2     1  UNL1       -0.1686
     20 O         139.8146  146.5833  157.0747 O.2     1  UNL1       -0.1686
     21 O         138.6360  137.9737  164.0863 O.3     1  UNL1       -0.4638
     22 C         139.8511  140.4674  169.4065 C.2     1  UNL1        0.4048
     23 O         138.7823  140.5549  170.4554 O.2     1  UNL1       -0.2262
     24 N         139.5474  139.8440  168.0765 N.am    1  UNL1       -0.2458
     25 C         140.6161  139.7564  167.0276 C.3     1  UNL1        0.1004
     26 C         140.3123  139.1330  165.6976 C.3     1  UNL1        0.0652
     27 C         138.9398  138.5971  165.4163 C.3     1  UNL1        0.1710
     28 C         137.8710  138.6847  166.4652 C.3     1  UNL1        0.0652
     29 C         138.1748  139.3081  167.7953 C.3     1  UNL1        0.1004
     30 O         141.2236  141.0032  169.6878 O.3     1  UNL1       -0.4383
     31 C         142.7253  143.0199  170.3420 C.3     1  UNL1        0.0474
     32 C         141.4499  142.4842  169.7619 C.3     1  UNL1        0.1707
     33 C         140.4008  143.4295  169.2562 C.3     1  UNL1        0.0474
@<TRIPOS>BOND
     1    31    32    1
     2    32    33    1
     3    32    30    1
     4    30    22    1
     5    22    23    2
     6    22    24   am
     7    24    25    1
     8    25    26    1
     9    26    27    1
    10    27    21    1
    11    21     1    1
    12     1     2   ar
    13     2     3   ar
    14     3     4   ar
    15     4     5   ar
    16     5     6   ar
    17     6     7   ar
    18     7     8   ar
    19     8     9   ar
    20     9    10    1
    21    10    11   ar
    22    11    12   ar
    23    12    13   ar
    24    13    17    1
    25    17    18    1
    26    17    19    2
    27    17    20    2
    28    13    14   ar
    29    14    15   ar
    30    15    16    1
    31    27    28    1
    32    28    29    1
    33    29    24    1
    34     6     1   ar
    35    15    10   ar
    36     9     5   ar
@<TRIPOS>MOLECULE
*****
 33 36 0 0 0
SMALL
GASTEIGER

@<TRIPOS>ATOM
      1 C         139.5374  140.1430  160.1884 C.ar    1  UNL1        0.2307
      2 N         139.8453  141.6106  160.1500 N.ar    1  UNL1       -0.1892
      3 C         140.2103  142.3336  161.4124 C.ar    1  UNL1        0.2029
      4 N         140.2676  141.5891  162.7134 N.ar    1  UNL1       -0.2046
      5 C         139.9597  140.1215  162.7518 C.ar    1  UNL1        0.1716
      6 C         139.5946  139.3985  161.4894 C.ar    1  UNL1        0.1098
      7 C         139.3442  137.9604  161.8346 C.ar    1  UNL1        0.1283
      8 N         139.5545  137.7947  163.3105 N.ar    1  UNL1       -0.1619
      9 N         139.9349  139.1303  163.8774 N.ar    1  UNL1       -0.2097
     10 C         140.2374  139.4234  165.3170 C.ar    1  UNL1        0.1118
     11 C         141.6610  139.5237  165.7790 C.ar    1  UNL1        0.0228
     12 C         141.9635  139.8167  167.2186 C.ar    1  UNL1        0.0200
     13 C         140.8424  140.0094  168.1964 C.ar    1  UNL1        0.1081
     14 C         139.4189  139.9091  167.7345 C.ar    1  UNL1        0.0495
     15 C         139.1164  139.6161  166.2948 C.ar    1  UNL1        0.1590
     16 F         137.6928  139.5158  165.8330 F       1  UNL1       -0.2025
     17 S         141.1449  140.3024  169.6361 S.O2    1  UNL1        0.0105
     18 C         141.4474  140.5955  171.0757 C.3     1  UNL1        0.1816
     19 O         139.7772  139.8218  170.0213 O.2     1  UNL1       -0.1686
     20 O         142.5126  140.7830  169.2508 O.2     1  UNL1       -0.1686
     21 O         139.1723  139.4199  158.9259 O.3     1  UNL1       -0.4638
     22 C         143.4576  136.9048  155.5628 C.2     1  UNL1        0.4048
     23 O         144.8651  137.4188  155.6338 O.2     1  UNL1       -0.2262
     24 N         142.3863  137.5336  156.4036 N.am    1  UNL1       -0.2458
     25 C         140.9789  137.0197  156.3326 C.3     1  UNL1        0.1004
     26 C         139.9075  137.6485  157.1734 C.3     1  UNL1        0.0652
     27 C         140.2436  138.7912  158.0851 C.3     1  UNL1        0.1710
     28 C         141.6511  139.3051  158.1561 C.3     1  UNL1        0.0652
     29 C         142.7224  138.6763  157.3154 C.3     1  UNL1        0.1004
     30 O         143.1215  135.7622  154.6511 O.3     1  UNL1       -0.4383
     31 C         143.7311  134.0703  156.5263 C.3     1  UNL1        0.0474
     32 C         143.1676  134.3538  155.1653 C.3     1  UNL1        0.1707
     33 C         142.6503  133.2289  154.3186 C.3     1  UNL1        0.0474
@<TRIPOS>BOND
     1    31    32    1
     2    32    33    1
     3    32    30    1
     4    30    22    1
     5    22    23    2
     6    22    24   am
     7    24    25    1
     8    25    26    1
     9    26    27    1
    10    27    21    1
    11    21     1    1
    12     1     2   ar
    13     2     3   ar
    14     3     4   ar
    15     4     5   ar
    16     5     6   ar
    17     6     7   ar
    18     7     8   ar
    19     8     9   ar
    20     9    10    1
    21    10    11   ar
    22    11    12   ar
    23    12    13   ar
    24    13    17    1
    25    17    18    1
    26    17    19    2
    27    17    20    2
    28    13    14   ar
    29    14    15   ar
    30    15    16    1
    31    27    28    1
    32    28    29    1
    33    29    24    1
    34     6     1   ar
    35    15    10   ar
    36     9     5   ar
@<TRIPOS>MOLECULE
*****
 33 36 0 0 0
SMALL
GASTEIGER

@<TRIPOS>ATOM
      1 C         138.8704  138.9058  162.9081 C.ar    1  UNL1        0.2307
      2 N         137.9719  139.9864  162.3840 N.ar    1  UNL1       -0.1892
      3 C         138.3409  140.7277  161.1333 C.ar    1  UNL1        0.2029
      4 N         139.6085  140.3882  160.4067 N.ar    1  UNL1       -0.2046
      5 C         140.5071  139.3075  160.9307 C.ar    1  UNL1        0.1716
      6 C         140.1380  138.5663  162.1814 C.ar    1  UNL1        0.1098
      7 C         141.2134  137.5574  162.4568 C.ar    1  UNL1        0.1283
      8 N         142.2470  137.6751  161.3762 N.ar    1  UNL1       -0.1619
      9 N         141.8105  138.7568  160.4331 N.ar    1  UNL1       -0.2097
     10 C         142.5479  139.2084  159.2074 C.ar    1  UNL1        0.1118
     11 C         143.5609  140.3103  159.3050 C.ar    1  UNL1        0.0228
     12 C         144.2984  140.7619  158.0793 C.ar    1  UNL1        0.0200
     13 C         144.0228  140.1116  156.7560 C.ar    1  UNL1        0.1081
     14 C         143.0098  139.0097  156.6584 C.ar    1  UNL1        0.0495
     15 C         142.2723  138.5581  157.8841 C.ar    1  UNL1        0.1590
     16 F         141.2593  137.4561  157.7864 F       1  UNL1       -0.2025
     17 S         144.7602  140.5632  155.5304 S.O2    1  UNL1        0.0105
     18 C         145.4977  141.0148  154.3047 C.3     1  UNL1        0.1816
     19 O         145.5602  139.2944  155.5441 O.2     1  UNL1       -0.1686
     20 O         143.9603  141.8320  155.5166 O.2     1  UNL1       -0.1686
     21 O         138.5014  138.1645  164.1589 O.3     1  UNL1       -0.4638
     22 C         139.9083  140.4489  169.5256 C.2     1  UNL1        0.4048
     23 O         138.8965  140.4404  170.6330 O.2     1  UNL1       -0.2262
     24 N         139.5566  139.8778  168.1839 N.am    1  UNL1       -0.2458
     25 C         140.5684  139.8862  167.0766 C.3     1  UNL1        0.1004
     26 C         140.2166  139.3151  165.7349 C.3     1  UNL1        0.0652
     27 C         138.8531  138.7356  165.5005 C.3     1  UNL1        0.1710
     28 C         137.8413  138.7271  166.6079 C.3     1  UNL1        0.0652
     29 C         138.1930  139.2982  167.9496 C.3     1  UNL1        0.1004
     30 O         141.2718  141.0284  169.7600 O.3     1  UNL1       -0.4383
     31 C         142.7032  143.1018  170.3942 C.3     1  UNL1        0.0474
     32 C         141.4583  142.5163  169.7963 C.3     1  UNL1        0.1707
     33 C         140.3999  143.4187  169.2349 C.3     1  UNL1        0.0474
@<TRIPOS>BOND
     1    31    32    1
     2    32    33    1
     3    32    30    1
     4    30    22    1
     5    22    23    2
     6    22    24   am
     7    24    25    1
     8    25    26    1
     9    26    27    1
    10    27    21    1
    11    21     1    1
    12     1     2   ar
    13     2     3   ar
    14     3     4   ar
    15     4     5   ar
    16     5     6   ar
    17     6     7   ar
    18     7     8   ar
    19     8     9   ar
    20     9    10    1
    21    10    11   ar
    22    11    12   ar
    23    12    13   ar
    24    13    17    1
    25    17    18    1
    26    17    19    2
    27    17    20    2
    28    13    14   ar
    29    14    15   ar
    30    15    16    1
    31    27    28    1
    32    28    29    1
    33    29    24    1
    34     6     1   ar
    35    15    10   ar
    36     9     5   ar
@<TRIPOS>MOLECULE
*****
 33 36 0 0 0
SMALL
GASTEIGER

@<TRIPOS>ATOM
      1 C         138.3857  139.4280  160.6948 C.ar    1  UNL1        0.2307
      2 N         139.2968  138.2365  160.7014 N.ar    1  UNL1       -0.1892
      3 C         140.0496  137.8748  161.9473 C.ar    1  UNL1        0.2029
      4 N         139.8913  138.7047  163.1868 N.ar    1  UNL1       -0.2046
      5 C         138.9803  139.8963  163.1802 C.ar    1  UNL1        0.1716
      6 C         138.2275  140.2579  161.9343 C.ar    1  UNL1        0.1098
      7 C         137.4076  141.4797  162.2262 C.ar    1  UNL1        0.1283
      8 N         137.6538  141.8731  163.6526 N.ar    1  UNL1       -0.1619
      9 N         138.6257  140.8945  164.2422 N.ar    1  UNL1       -0.2097
     10 C         139.1509  140.9112  165.6472 C.ar    1  UNL1        0.1118
     11 C         140.0003  142.0548  166.1169 C.ar    1  UNL1        0.0228
     12 C         140.5255  142.0714  167.5218 C.ar    1  UNL1        0.0200
     13 C         140.2013  140.9444  168.4571 C.ar    1  UNL1        0.1081
     14 C         139.3519  139.8008  167.9874 C.ar    1  UNL1        0.0495
     15 C         138.8267  139.7842  166.5825 C.ar    1  UNL1        0.1590
     16 F         137.9773  138.6405  166.1128 F       1  UNL1       -0.2025
     17 S         140.7265  140.9611  169.8621 S.O2    1  UNL1        0.0105
     18 C         141.2516  140.9777  171.2670 C.3     1  UNL1        0.1816
     19 O         141.5746  142.1531  169.5309 O.2     1  UNL1       -0.1686
     20 O         139.8783  139.7691  170.1933 O.2     1  UNL1       -0.1686
     21 O         137.6329  139.7898  159.4488 O.3     1  UNL1       -0.4638
     22 C         140.0535  143.5770  155.4742 C.2     1  UNL1        0.4048
     23 O         140.6221  143.0528  154.1889 O.2     1  UNL1       -0.2262
     24 N         139.4483  142.6302  156.4679 N.am    1  UNL1       -0.2458
     25 C         138.8797  143.1543  157.7531 C.3     1  UNL1        0.1004
     26 C         138.2746  142.2075  158.7468 C.3     1  UNL1        0.0652
     27 C         138.2380  140.7366  158.4552 C.3     1  UNL1        0.1710
     28 C         138.8067  140.2124  157.1699 C.3     1  UNL1        0.0652
     29 C         139.4118  141.1592  156.1762 C.3     1  UNL1        0.1004
     30 O         140.0900  145.0479  155.7658 O.3     1  UNL1       -0.4383
     31 C         139.2682  147.4097  155.0612 C.3     1  UNL1        0.0474
     32 C         139.0071  145.9436  155.2413 C.3     1  UNL1        0.1707
     33 C         137.6632  145.3732  154.8969 C.3     1  UNL1        0.0474
@<TRIPOS>BOND
     1    31    32    1
     2    32    33    1
     3    32    30    1
     4    30    22    1
     5    22    23    2
     6    22    24   am
     7    24    25    1
     8    25    26    1
     9    26    27    1
    10    27    21    1
    11    21     1    1
    12     1     2   ar
    13     2     3   ar
    14     3     4   ar
    15     4     5   ar
    16     5     6   ar
    17     6     7   ar
    18     7     8   ar
    19     8     9   ar
    20     9    10    1
    21    10    11   ar
    22    11    12   ar
    23    12    13   ar
    24    13    17    1
    25    17    18    1
    26    17    19    2
    27    17    20    2
    28    13    14   ar
    29    14    15   ar
    30    15    16    1
    31    27    28    1
    32    28    29    1
    33    29    24    1
    34     6     1   ar
    35    15    10   ar
    36     9     5   ar
@<TRIPOS>MOLECULE
*****
 33 36 0 0 0
SMALL
GASTEIGER

@<TRIPOS>ATOM
      1 C         139.2914  139.2624  159.7606 C.ar    1  UNL1        0.2307
      2 N         140.6273  138.5806  159.7439 N.ar    1  UNL1       -0.1892
      3 C         141.3883  138.3906  161.0224 C.ar    1  UNL1        0.2029
      4 N         140.8134  138.8823  162.3176 N.ar    1  UNL1       -0.2046
      5 C         139.4775  139.5641  162.3344 C.ar    1  UNL1        0.1716
      6 C         138.7164  139.7542  161.0558 C.ar    1  UNL1        0.1098
      7 C         137.4319  140.4573  161.3811 C.ar    1  UNL1        0.1283
      8 N         137.3992  140.7018  162.8607 N.ar    1  UNL1       -0.1619
      9 N         138.6634  140.1498  163.4498 N.ar    1  UNL1       -0.2097
     10 C         139.0463  140.1784  164.8998 C.ar    1  UNL1        0.1118
     11 C         138.2996  139.3341  165.8895 C.ar    1  UNL1        0.0228
     12 C         138.6825  139.3628  167.3396 C.ar    1  UNL1        0.0200
     13 C         139.8122  140.2357  167.7999 C.ar    1  UNL1        0.1081
     14 C         140.5588  141.0799  166.8102 C.ar    1  UNL1        0.0495
     15 C         140.1759  141.0513  165.3601 C.ar    1  UNL1        0.1590
     16 F         140.9227  141.8956  164.3705 F       1  UNL1       -0.2025
     17 S         140.1951  140.2643  169.2499 S.O2    1  UNL1        0.0105
     18 C         140.5780  140.2929  170.6999 C.3     1  UNL1        0.1816
     19 O         138.8045  139.8455  169.6254 O.2     1  UNL1       -0.1686
     20 O         141.5856  140.6831  168.8744 O.2     1  UNL1       -0.1686
     21 O         138.5302  139.4525  158.4820 O.3     1  UNL1       -0.4638
     22 C         138.4603  144.8203  155.8021 C.2     1  UNL1        0.4048
     23 O         137.3099  145.2026  154.9186 O.2     1  UNL1       -0.2262
     24 N         138.4778  143.4784  156.4721 N.am    1  UNL1       -0.2458
     25 C         139.6282  143.0961  157.3555 C.3     1  UNL1        0.1004
     26 C         139.6456  141.7541  158.0255 C.3     1  UNL1        0.0652
     27 C         138.5128  140.7945  157.8121 C.3     1  UNL1        0.1710
     28 C         137.3623  141.1767  156.9286 C.3     1  UNL1        0.0652
     29 C         137.3449  142.5187  156.2586 C.3     1  UNL1        0.1004
     30 O         139.5932  145.7800  156.0156 O.3     1  UNL1       -0.4383
     31 C         138.9026  148.2763  155.8121 C.3     1  UNL1        0.0474
     32 C         139.6258  147.0800  155.2681 C.3     1  UNL1        0.1707
     33 C         140.3816  147.1839  153.9766 C.3     1  UNL1        0.0474
@<TRIPOS>BOND
     1    31    32    1
     2    32    33    1
     3    32    30    1
     4    30    22    1
     5    22    23    2
     6    22    24   am
     7    24    25    1
     8    25    26    1
     9    26    27    1
    10    27    21    1
    11    21     1    1
    12     1     2   ar
    13     2     3   ar
    14     3     4   ar
    15     4     5   ar
    16     5     6   ar
    17     6     7   ar
    18     7     8   ar
    19     8     9   ar
    20     9    10    1
    21    10    11   ar
    22    11    12   ar
    23    12    13   ar
    24    13    17    1
    25    17    18    1
    26    17    19    2
    27    17    20    2
    28    13    14   ar
    29    14    15   ar
    30    15    16    1
    31    27    28    1
    32    28    29    1
    33    29    24    1
    34     6     1   ar
    35    15    10   ar
    36     9     5   ar
@<TRIPOS>MOLECULE
*****
 33 36 0 0 0
SMALL
GASTEIGER

@<TRIPOS>ATOM
      1 C         139.1364  139.5062  160.3833 C.ar    1  UNL1        0.2307
      2 N         138.2011  140.6757  160.4696 N.ar    1  UNL1       -0.1892
      3 C         137.9837  141.3667  161.7831 C.ar    1  UNL1        0.2029
      4 N         138.7016  140.8882  163.0102 N.ar    1  UNL1       -0.2046
      5 C         139.6369  139.7187  162.9238 C.ar    1  UNL1        0.1716
      6 C         139.8543  139.0277  161.6104 C.ar    1  UNL1        0.1098
      7 C         140.8293  137.9092  161.8308 C.ar    1  UNL1        0.1283
      8 N         141.2144  137.9091  163.2805 N.ar    1  UNL1       -0.1619
      9 N         140.4774  139.0274  163.9560 N.ar    1  UNL1       -0.2097
     10 C         140.5655  139.3906  165.4087 C.ar    1  UNL1        0.1118
     11 C         141.8972  139.7032  166.0243 C.ar    1  UNL1        0.0228
     12 C         141.9853  140.0664  167.4769 C.ar    1  UNL1        0.0200
     13 C         140.7417  140.1170  168.3142 C.ar    1  UNL1        0.1081
     14 C         139.4101  139.8044  167.6986 C.ar    1  UNL1        0.0495
     15 C         139.3219  139.4412  166.2459 C.ar    1  UNL1        0.1590
     16 F         137.9902  139.1286  165.6305 F       1  UNL1       -0.2025
     17 S         140.8298  140.4802  169.7668 S.O2    1  UNL1        0.0105
     18 C         140.9180  140.8435  171.2195 C.3     1  UNL1        0.1816
     19 O         142.1459  141.1556  169.5182 O.2     1  UNL1       -0.1686
     20 O         139.5138  139.8049  170.0155 O.2     1  UNL1       -0.1686
     21 O         139.3539  138.8151  159.0698 O.3     1  UNL1       -0.4638
     22 C         144.4434  139.7037  156.0190 C.2     1  UNL1        0.4048
     23 O         145.3110  138.5366  155.6513 O.2     1  UNL1       -0.2262
     24 N         143.1710  139.4816  156.7817 N.am    1  UNL1       -0.2458
     25 C         142.3035  140.6487  157.1494 C.3     1  UNL1        0.1004
     26 C         141.0312  140.4265  157.9121 C.3     1  UNL1        0.0652
     27 C         140.6263  139.0373  158.3071 C.3     1  UNL1        0.1710
     28 C         141.4938  137.8701  157.9394 C.3     1  UNL1        0.0652
     29 C         142.7662  138.0922  157.1767 C.3     1  UNL1        0.1004
     30 O         144.8483  141.0930  155.6240 O.3     1  UNL1       -0.4383
     31 C         147.2711  141.9894  155.9007 C.3     1  UNL1        0.0474
     32 C         145.8759  141.8321  156.4288 C.3     1  UNL1        0.1707
     33 C         145.5085  142.4139  157.7616 C.3     1  UNL1        0.0474
@<TRIPOS>BOND
     1    31    32    1
     2    32    33    1
     3    32    30    1
     4    30    22    1
     5    22    23    2
     6    22    24   am
     7    24    25    1
     8    25    26    1
     9    26    27    1
    10    27    21    1
    11    21     1    1
    12     1     2   ar
    13     2     3   ar
    14     3     4   ar
    15     4     5   ar
    16     5     6   ar
    17     6     7   ar
    18     7     8   ar
    19     8     9   ar
    20     9    10    1
    21    10    11   ar
    22    11    12   ar
    23    12    13   ar
    24    13    17    1
    25    17    18    1
    26    17    19    2
    27    17    20    2
    28    13    14   ar
    29    14    15   ar
    30    15    16    1
    31    27    28    1
    32    28    29    1
    33    29    24    1
    34     6     1   ar
    35    15    10   ar
    36     9     5   ar
@<TRIPOS>MOLECULE
*****
 33 36 0 0 0
SMALL
GASTEIGER

@<TRIPOS>ATOM
      1 C         138.6359  139.3988  161.7742 C.ar    1  UNL1        0.2307
      2 N         139.1513  138.3510  160.8326 N.ar    1  UNL1       -0.1892
      3 C         139.6368  138.7422  159.4684 C.ar    1  UNL1        0.2029
      4 N         139.6069  140.1811  159.0457 N.ar    1  UNL1       -0.2046
      5 C         139.0915  141.2288  159.9872 C.ar    1  UNL1        0.1716
      6 C         138.6060  140.8377  161.3515 C.ar    1  UNL1        0.1098
      7 C         138.1566  142.0822  162.0580 C.ar    1  UNL1        0.1283
      8 N         138.3643  143.2425  161.1304 N.ar    1  UNL1       -0.1619
      9 N         138.9422  142.7151  159.8506 N.ar    1  UNL1       -0.2097
     10 C         139.3066  143.5307  158.6456 C.ar    1  UNL1        0.1118
     11 C         138.8093  143.1282  157.2890 C.ar    1  UNL1        0.0228
     12 C         139.1738  143.9438  156.0840 C.ar    1  UNL1        0.0200
     13 C         140.0357  145.1621  156.2357 C.ar    1  UNL1        0.1081
     14 C         140.5329  145.5647  157.5924 C.ar    1  UNL1        0.0495
     15 C         140.1685  144.7490  158.7973 C.ar    1  UNL1        0.1590
     16 F         140.6658  145.1517  160.1540 F       1  UNL1       -0.2025
     17 S         140.4001  145.9777  155.0308 S.O2    1  UNL1        0.0105
     18 C         140.7646  146.7934  153.8259 C.3     1  UNL1        0.1816
     19 O         139.6700  147.1547  155.6066 O.2     1  UNL1       -0.1686
     20 O         141.1303  144.8008  154.4550 O.2     1  UNL1       -0.1686
     21 O         138.1504  139.0077  163.1385 O.3     1  UNL1       -0.4638
     22 C         141.6701  139.8352  167.9267 C.2     1  UNL1        0.4048
     23 O         143.0141  139.1723  167.9931 O.2     1  UNL1       -0.2262
     24 N         140.7902  139.6283  166.7296 N.am    1  UNL1       -0.2458
     25 C         139.4462  140.2911  166.6632 C.3     1  UNL1        0.1004
     26 C         138.5663  140.0842  165.4661 C.3     1  UNL1        0.0652
     27 C         139.0303  139.2145  164.3355 C.3     1  UNL1        0.1710
     28 C         140.3743  138.5517  164.4019 C.3     1  UNL1        0.0652
     29 C         141.2543  138.7585  165.5990 C.3     1  UNL1        0.1004
     30 O         141.2061  140.7049  169.0573 O.3     1  UNL1       -0.4383
     31 C         143.1194  142.4620  169.1009 C.3     1  UNL1        0.0474
     32 C         141.6563  142.1334  169.1381 C.3     1  UNL1        0.1707
     33 C         140.6433  143.2334  169.2562 C.3     1  UNL1        0.0474
@<TRIPOS>BOND
     1    31    32    1
     2    32    33    1
     3    32    30    1
     4    30    22    1
     5    22    23    2
     6    22    24   am
     7    24    25    1
     8    25    26    1
     9    26    27    1
    10    27    21    1
    11    21     1    1
    12     1     2   ar
    13     2     3   ar
    14     3     4   ar
    15     4     5   ar
    16     5     6   ar
    17     6     7   ar
    18     7     8   ar
    19     8     9   ar
    20     9    10    1
    21    10    11   ar
    22    11    12   ar
    23    12    13   ar
    24    13    17    1
    25    17    18    1
    26    17    19    2
    27    17    20    2
    28    13    14   ar
    29    14    15   ar
    30    15    16    1
    31    27    28    1
    32    28    29    1
    33    29    24    1
    34     6     1   ar
    35    15    10   ar
    36     9     5   ar
@<TRIPOS>MOLECULE
*****
 33 36 0 0 0
SMALL
GASTEIGER

@<TRIPOS>ATOM
      1 C         141.4199  138.5492  158.3771 C.ar    1  UNL1        0.2307
      2 N         140.0871  139.1697  158.0797 N.ar    1  UNL1       -0.1892
      3 C         139.2163  139.6503  159.2024 C.ar    1  UNL1        0.2029
      4 N         139.6782  139.5104  160.6227 N.ar    1  UNL1       -0.2046
      5 C         141.0110  138.8899  160.9201 C.ar    1  UNL1        0.1716
      6 C         141.8819  138.4092  159.7973 C.ar    1  UNL1        0.1098
      7 C         143.1366  137.8431  160.3935 C.ar    1  UNL1        0.1283
      8 N         143.0411  137.9739  161.8847 N.ar    1  UNL1       -0.1619
      9 N         141.7275  138.6208  162.2102 N.ar    1  UNL1       -0.2097
     10 C         141.2195  138.9422  163.5844 C.ar    1  UNL1        0.1118
     11 C         141.9622  139.9167  164.4497 C.ar    1  UNL1        0.0228
     12 C         141.4541  140.2381  165.8240 C.ar    1  UNL1        0.0200
     13 C         140.2034  139.5851  166.3330 C.ar    1  UNL1        0.1081
     14 C         139.4607  138.6106  165.4677 C.ar    1  UNL1        0.0495
     15 C         139.9687  138.2892  164.0934 C.ar    1  UNL1        0.1590
     16 F         139.2259  137.3147  163.2282 F       1  UNL1       -0.2025
     17 S         139.6953  139.9065  167.7072 S.O2    1  UNL1        0.0105
     18 C         139.1873  140.2279  169.0815 C.3     1  UNL1        0.1816
     19 O         140.8905  140.7814  167.9444 O.2     1  UNL1       -0.1686
     20 O         138.5002  139.0316  167.4701 O.2     1  UNL1       -0.1686
     21 O         142.2908  138.0685  157.2543 O.3     1  UNL1       -0.4638
     22 C         141.7218  132.4573  155.2073 C.2     1  UNL1        0.4048
     23 O         140.7927  132.1658  154.0662 O.2     1  UNL1       -0.2262
     24 N         141.8641  133.8601  155.7190 N.am    1  UNL1       -0.2458
     25 C         142.7931  134.1516  156.8600 C.3     1  UNL1        0.1004
     26 C         142.9353  135.5544  157.3718 C.3     1  UNL1        0.0652
     27 C         142.1485  136.6657  156.7426 C.3     1  UNL1        0.1710
     28 C         141.2195  136.3742  155.6015 C.3     1  UNL1        0.0652
     29 C         141.0772  134.9714  155.0897 C.3     1  UNL1        0.1004
     30 O         142.5086  131.3460  155.8365 O.3     1  UNL1       -0.4383
     31 C         144.0494  130.3902  153.9757 C.3     1  UNL1        0.0474
     32 C         143.8809  131.0173  155.3280 C.3     1  UNL1        0.1707
     33 C         145.0848  131.3157  156.1715 C.3     1  UNL1        0.0474
@<TRIPOS>BOND
     1    31    32    1
     2    32    33    1
     3    32    30    1
     4    30    22    1
     5    22    23    2
     6    22    24   am
     7    24    25    1
     8    25    26    1
     9    26    27    1
    10    27    21    1
    11    21     1    1
    12     1     2   ar
    13     2     3   ar
    14     3     4   ar
    15     4     5   ar
    16     5     6   ar
    17     6     7   ar
    18     7     8   ar
    19     8     9   ar
    20     9    10    1
    21    10    11   ar
    22    11    12   ar
    23    12    13   ar
    24    13    17    1
    25    17    18    1
    26    17    19    2
    27    17    20    2
    28    13    14   ar
    29    14    15   ar
    30    15    16    1
    31    27    28    1
    32    28    29    1
    33    29    24    1
    34     6     1   ar
    35    15    10   ar
    36     9     5   ar
@<TRIPOS>MOLECULE
*****
 33 36 0 0 0
SMALL
GASTEIGER

@<TRIPOS>ATOM
      1 C         140.5706  139.2066  160.2683 C.ar    1  UNL1        0.2307
      2 N         139.3987  138.3553  160.6581 N.ar    1  UNL1       -0.1892
      3 C         139.0677  138.1531  162.1070 C.ar    1  UNL1        0.2029
      4 N         139.9085  138.8021  163.1662 N.ar    1  UNL1       -0.2046
      5 C         141.0804  139.6534  162.7764 C.ar    1  UNL1        0.1716
      6 C         141.4114  139.8556  161.3274 C.ar    1  UNL1        0.1098
      7 C         142.6190  140.7419  161.2471 C.ar    1  UNL1        0.1283
      8 N         143.0342  141.0874  162.6465 N.ar    1  UNL1       -0.1619
      9 N         142.0833  140.4147  163.5916 N.ar    1  UNL1       -0.2097
     10 C         142.1275  140.4900  165.0890 C.ar    1  UNL1        0.1118
     11 C         141.7424  141.7601  165.7879 C.ar    1  UNL1        0.0228
     12 C         141.7866  141.8354  167.2853 C.ar    1  UNL1        0.0200
     13 C         142.2160  140.6405  168.0840 C.ar    1  UNL1        0.1081
     14 C         142.6011  139.3704  167.3852 C.ar    1  UNL1        0.0495
     15 C         142.5569  139.2951  165.8877 C.ar    1  UNL1        0.1590
     16 F         142.9420  138.0249  165.1890 F       1  UNL1       -0.2025
     17 S         142.2602  140.7158  169.5815 S.O2    1  UNL1        0.0105
     18 C         142.3044  140.7911  171.0789 C.3     1  UNL1        0.1816
     19 O         143.0318  139.4301  169.6233 O.2     1  UNL1       -0.1686
     20 O         141.4887  142.0015  169.5396 O.2     1  UNL1       -0.1686
     21 O         140.9017  139.4089  158.8193 O.3     1  UNL1       -0.4638
     22 C         142.2950  134.6981  155.3744 C.2     1  UNL1        0.4048
     23 O         141.3482  134.2472  154.3018 O.2     1  UNL1       -0.2262
     24 N         141.9466  135.8758  156.2357 N.am    1  UNL1       -0.2458
     25 C         142.8933  136.3267  157.3082 C.3     1  UNL1        0.1004
     26 C         142.5450  137.5044  158.1694 C.3     1  UNL1        0.0652
     27 C         141.2500  138.2312  157.9581 C.3     1  UNL1        0.1710
     28 C         140.3032  137.7803  156.8855 C.3     1  UNL1        0.0652
     29 C         140.6516  136.6026  156.0243 C.3     1  UNL1        0.1004
     30 O         143.5899  133.9713  155.5858 O.3     1  UNL1       -0.4383
     31 C         144.5982  132.9130  157.7337 C.3     1  UNL1        0.0474
     32 C         143.6621  132.8365  156.5641 C.3     1  UNL1        0.1707
     33 C         142.7983  131.6253  156.3729 C.3     1  UNL1        0.0474
@<TRIPOS>BOND
     1    31    32    1
     2    32    33    1
     3    32    30    1
     4    30    22    1
     5    22    23    2
     6    22    24   am
     7    24    25    1
     8    25    26    1
     9    26    27    1
    10    27    21    1
    11    21     1    1
    12     1     2   ar
    13     2     3   ar
    14     3     4   ar
    15     4     5   ar
    16     5     6   ar
    17     6     7   ar
    18     7     8   ar
    19     8     9   ar
    20     9    10    1
    21    10    11   ar
    22    11    12   ar
    23    12    13   ar
    24    13    17    1
    25    17    18    1
    26    17    19    2
    27    17    20    2
    28    13    14   ar
    29    14    15   ar
    30    15    16    1
    31    27    28    1
    32    28    29    1
    33    29    24    1
    34     6     1   ar
    35    15    10   ar
    36     9     5   ar
