@<TRIPOS>MOLECULE
*****
 29 32 0 0 0
SMALL
GASTEIGER

@<TRIPOS>ATOM
      1 C         141.5579  145.4119  158.9312 C.3     1  UNL1        0.0420
      2 C         141.4640  144.9621  160.3592 C.3     1  UNL1        0.1909
      3 O         142.5206  144.0661  160.9343 O.3     1  UNL1       -0.3501
      4 C         142.4267  143.6163  162.3622 C.3     1  UNL1        0.1141
      5 C         142.3327  143.1666  163.7901 C.3     1  UNL1        0.0463
      6 C         143.3893  142.2705  164.3652 C.3     1  UNL1        0.0746
      7 N         144.5397  141.8242  163.5124 N.3     1  UNL1       -0.2722
      8 C         144.6337  142.2739  162.0846 C.3     1  UNL1        0.0746
      9 C         143.5771  143.1700  161.5095 C.3     1  UNL1        0.0463
     10 C         141.2762  144.0626  163.2150 C.3     1  UNL1        0.1206
     11 N         140.2196  144.9587  162.6398 N.am    1  UNL1       -0.2748
     12 C         140.3136  145.4085  161.2120 C.2     1  UNL1        0.2529
     13 O         139.2570  146.3046  160.6368 O.2     1  UNL1       -0.2722
     14 C         145.5963  140.9281  164.0876 C.3     1  UNL1        0.0768
     15 C         145.3279  139.4615  164.2518 C.3     1  UNL1        0.0437
     16 C         143.9302  138.9348  164.1138 C.ar    1  UNL1       -0.0208
     17 C         143.0662  138.7729  165.3292 C.ar    1  UNL1       -0.0042
     18 C         141.6686  138.2462  165.1912 C.ar    1  UNL1       -0.0003
     19 C         141.1349  137.8814  163.8377 C.ar    1  UNL1       -0.0000
     20 C         141.9988  138.0432  162.6222 C.ar    1  UNL1       -0.0003
     21 C         143.3964  138.5699  162.7602 C.ar    1  UNL1       -0.0042
     22 C         139.0692  145.4051  163.4926 C.3     1  UNL1        0.0982
     23 C         138.5914  144.5392  164.6205 C.3     1  UNL1        0.0478
     24 C         138.3978  143.0673  164.4060 C.ar    1  UNL1       -0.0205
     25 C         139.0226  142.0831  165.3500 C.ar    1  UNL1       -0.0042
     26 C         138.8290  140.6112  165.1355 C.ar    1  UNL1       -0.0003
     27 C         138.0106  140.1235  163.9769 C.ar    1  UNL1       -0.0000
     28 C         137.3858  141.1076  163.0329 C.ar    1  UNL1       -0.0003
     29 C         137.5794  142.5795  163.2474 C.ar    1  UNL1       -0.0042
@<TRIPOS>BOND
     1     1     2    1
     2     2     3    1
     3     3     4    1
     4     4     5    1
     5     5     6    1
     6     6     7    1
     7     7    14    1
     8    14    15    1
     9    15    16    1
    10    16    17   ar
    11    17    18   ar
    12    18    19   ar
    13    19    20   ar
    14    20    21   ar
    15     7     8    1
    16     8     9    1
    17     4    10    1
    18    10    11    1
    19    11    22    1
    20    22    23    1
    21    23    24    1
    22    24    25   ar
    23    25    26   ar
    24    26    27   ar
    25    27    28   ar
    26    28    29   ar
    27    11    12   am
    28    12    13    2
    29    12     2    1
    30     9     4    1
    31    29    24   ar
    32    21    16   ar
@<TRIPOS>MOLECULE
*****
 29 32 0 0 0
SMALL
GASTEIGER

@<TRIPOS>ATOM
      1 C         142.1813  144.6491  157.8727 C.3     1  UNL1        0.0420
      2 C         141.9555  144.4516  159.3424 C.3     1  UNL1        0.1909
      3 O         142.9195  143.6297  160.1456 O.3     1  UNL1       -0.3501
      4 C         142.6937  143.4322  161.6153 C.3     1  UNL1        0.1141
      5 C         142.4678  143.2348  163.0850 C.3     1  UNL1        0.0463
      6 C         143.4318  142.4128  163.8881 C.3     1  UNL1        0.0746
      7 N         144.6216  141.7883  163.2216 N.3     1  UNL1       -0.2722
      8 C         144.8474  141.9857  161.7519 C.3     1  UNL1        0.0746
      9 C         143.8835  142.8077  160.9488 C.3     1  UNL1        0.0463
     10 C         141.5038  144.0568  162.2818 C.3     1  UNL1        0.1206
     11 N         140.5398  144.8788  161.4786 N.am    1  UNL1       -0.2748
     12 C         140.7657  145.0762  160.0089 C.2     1  UNL1        0.2529
     13 O         139.8017  145.8982  159.2057 O.2     1  UNL1       -0.2722
     14 C         145.5856  140.9663  164.0248 C.3     1  UNL1        0.0768
     15 C         145.2558  139.5431  164.3648 C.3     1  UNL1        0.0437
     16 C         143.8274  139.0849  164.3704 C.ar    1  UNL1       -0.0208
     17 C         143.2089  138.5423  163.1162 C.ar    1  UNL1       -0.0042
     18 C         141.7806  138.0842  163.1219 C.ar    1  UNL1       -0.0003
     19 C         140.9708  138.1688  164.3817 C.ar    1  UNL1       -0.0000
     20 C         141.5893  138.7114  165.6358 C.ar    1  UNL1       -0.0003
     21 C         143.0176  139.1695  165.6302 C.ar    1  UNL1       -0.0042
     22 C         139.3500  145.5033  162.1451 C.3     1  UNL1        0.0982
     23 C         138.9201  145.0355  163.5040 C.3     1  UNL1        0.0478
     24 C         138.6073  143.5867  163.7341 C.ar    1  UNL1       -0.0205
     25 C         139.1732  142.8777  164.9288 C.ar    1  UNL1       -0.0042
     26 C         138.8603  141.4288  165.1589 C.ar    1  UNL1       -0.0003
     27 C         137.9815  140.6890  164.1943 C.ar    1  UNL1       -0.0000
     28 C         137.4156  141.3979  162.9997 C.ar    1  UNL1       -0.0003
     29 C         137.7285  142.8468  162.7696 C.ar    1  UNL1       -0.0042
@<TRIPOS>BOND
     1     1     2    1
     2     2     3    1
     3     3     4    1
     4     4     5    1
     5     5     6    1
     6     6     7    1
     7     7    14    1
     8    14    15    1
     9    15    16    1
    10    16    17   ar
    11    17    18   ar
    12    18    19   ar
    13    19    20   ar
    14    20    21   ar
    15     7     8    1
    16     8     9    1
    17     4    10    1
    18    10    11    1
    19    11    22    1
    20    22    23    1
    21    23    24    1
    22    24    25   ar
    23    25    26   ar
    24    26    27   ar
    25    27    28   ar
    26    28    29   ar
    27    11    12   am
    28    12    13    2
    29    12     2    1
    30     9     4    1
    31    29    24   ar
    32    21    16   ar
@<TRIPOS>MOLECULE
*****
 29 32 0 0 0
SMALL
GASTEIGER

@<TRIPOS>ATOM
      1 C         138.4719  137.5502  162.6663 C.3     1  UNL1        0.0420
      2 C         138.6363  138.6812  163.6379 C.3     1  UNL1        0.1909
      3 O         138.6905  140.0953  163.1406 O.3     1  UNL1       -0.3501
      4 C         138.8549  141.2262  164.1122 C.3     1  UNL1        0.1141
      5 C         139.0193  142.3571  165.0838 C.3     1  UNL1        0.0463
      6 C         139.0735  143.7712  164.5865 C.3     1  UNL1        0.0746
      7 N         138.9632  144.0544  163.1176 N.3     1  UNL1       -0.2722
      8 C         138.7988  142.9236  162.1460 C.3     1  UNL1        0.0746
      9 C         138.7446  141.5095  162.6433 C.3     1  UNL1        0.0463
     10 C         138.9652  140.9430  165.5811 C.3     1  UNL1        0.1206
     11 N         138.9110  139.5288  166.0784 N.am    1  UNL1       -0.2748
     12 C         138.7466  138.3980  165.1068 C.2     1  UNL1        0.2529
     13 O         138.6924  136.9838  165.6041 O.2     1  UNL1       -0.2722
     14 C         139.0174  145.4686  162.6204 C.3     1  UNL1        0.0768
     15 C         140.3286  146.0688  162.2076 C.3     1  UNL1        0.0437
     16 C         141.6070  145.3275  162.4652 C.ar    1  UNL1       -0.0208
     17 C         142.3443  145.5296  163.7557 C.ar    1  UNL1       -0.0042
     18 C         143.6226  144.7883  164.0132 C.ar    1  UNL1       -0.0003
     19 C         144.1636  143.8448  162.9801 C.ar    1  UNL1       -0.0000
     20 C         143.4263  143.6427  161.6895 C.ar    1  UNL1       -0.0003
     21 C         142.1480  144.3840  161.4321 C.ar    1  UNL1       -0.0042
     22 C         139.0213  139.2456  167.5473 C.3     1  UNL1        0.0982
     23 C         139.2193  140.3738  168.5158 C.3     1  UNL1        0.0478
     24 C         140.6033  140.7536  168.9521 C.ar    1  UNL1       -0.0205
     25 C         141.2240  142.0253  168.4546 C.ar    1  UNL1       -0.0042
     26 C         142.6080  142.4050  168.8908 C.ar    1  UNL1       -0.0003
     27 C         143.3712  141.5131  169.8247 C.ar    1  UNL1       -0.0000
     28 C         142.7505  140.2415  170.3222 C.ar    1  UNL1       -0.0003
     29 C         141.3665  139.8617  169.8859 C.ar    1  UNL1       -0.0042
@<TRIPOS>BOND
     1     1     2    1
     2     2     3    1
     3     3     4    1
     4     4     5    1
     5     5     6    1
     6     6     7    1
     7     7    14    1
     8    14    15    1
     9    15    16    1
    10    16    17   ar
    11    17    18   ar
    12    18    19   ar
    13    19    20   ar
    14    20    21   ar
    15     7     8    1
    16     8     9    1
    17     4    10    1
    18    10    11    1
    19    11    22    1
    20    22    23    1
    21    23    24    1
    22    24    25   ar
    23    25    26   ar
    24    26    27   ar
    25    27    28   ar
    26    28    29   ar
    27    11    12   am
    28    12    13    2
    29    12     2    1
    30     9     4    1
    31    29    24   ar
    32    21    16   ar
@<TRIPOS>MOLECULE
*****
 29 32 0 0 0
SMALL
GASTEIGER

@<TRIPOS>ATOM
      1 C         143.5824  143.2114  157.6241 C.3     1  UNL1        0.0420
      2 C         142.5410  143.1317  158.7008 C.3     1  UNL1        0.1909
      3 O         142.2115  141.8102  159.3292 O.3     1  UNL1       -0.3501
      4 C         141.1701  141.7305  160.4059 C.3     1  UNL1        0.1141
      5 C         140.1287  141.6508  161.4825 C.3     1  UNL1        0.0463
      6 C         139.7992  140.3293  162.1108 C.3     1  UNL1        0.0746
      7 N         140.5110  139.0874  161.6625 N.3     1  UNL1       -0.2722
      8 C         141.5523  139.1670  160.5859 C.3     1  UNL1        0.0746
      9 C         141.8819  140.4886  159.9575 C.3     1  UNL1        0.0463
     10 C         140.4583  142.9724  160.8542 C.3     1  UNL1        0.1206
     11 N         140.7879  144.2940  160.2258 N.am    1  UNL1       -0.2748
     12 C         141.8292  144.3737  159.1492 C.2     1  UNL1        0.2529
     13 O         142.1588  145.6953  158.5208 O.2     1  UNL1       -0.2722
     14 C         140.1814  137.7658  162.2909 C.3     1  UNL1        0.0768
     15 C         140.6869  137.4420  163.6655 C.3     1  UNL1        0.0437
     16 C         140.1356  138.1669  164.8574 C.ar    1  UNL1       -0.0208
     17 C         140.9919  139.1497  165.5996 C.ar    1  UNL1       -0.0042
     18 C         140.4406  139.8746  166.7914 C.ar    1  UNL1       -0.0003
     19 C         139.0331  139.6167  167.2411 C.ar    1  UNL1       -0.0000
     20 C         138.1768  138.6339  166.4990 C.ar    1  UNL1       -0.0003
     21 C         138.7281  137.9090  165.3071 C.ar    1  UNL1       -0.0042
     22 C         140.0761  145.5359  160.6741 C.3     1  UNL1        0.0982
     23 C         140.1598  145.9726  162.1068 C.3     1  UNL1        0.0478
     24 C         139.8228  145.0087  163.2055 C.ar    1  UNL1       -0.0205
     25 C         140.9018  144.5032  164.1169 C.ar    1  UNL1       -0.0042
     26 C         140.5648  143.5393  165.2156 C.ar    1  UNL1       -0.0003
     27 C         139.1489  143.0808  165.4031 C.ar    1  UNL1       -0.0000
     28 C         138.0700  143.5863  164.4917 C.ar    1  UNL1       -0.0003
     29 C         138.4070  144.5502  163.3930 C.ar    1  UNL1       -0.0042
@<TRIPOS>BOND
     1     1     2    1
     2     2     3    1
     3     3     4    1
     4     4     5    1
     5     5     6    1
     6     6     7    1
     7     7    14    1
     8    14    15    1
     9    15    16    1
    10    16    17   ar
    11    17    18   ar
    12    18    19   ar
    13    19    20   ar
    14    20    21   ar
    15     7     8    1
    16     8     9    1
    17     4    10    1
    18    10    11    1
    19    11    22    1
    20    22    23    1
    21    23    24    1
    22    24    25   ar
    23    25    26   ar
    24    26    27   ar
    25    27    28   ar
    26    28    29   ar
    27    11    12   am
    28    12    13    2
    29    12     2    1
    30     9     4    1
    31    29    24   ar
    32    21    16   ar
@<TRIPOS>MOLECULE
*****
 29 32 0 0 0
SMALL
GASTEIGER

@<TRIPOS>ATOM
      1 C         144.5349  142.5362  157.9939 C.3     1  UNL1        0.0420
      2 C         143.7246  142.7365  159.2404 C.3     1  UNL1        0.1909
      3 O         143.9275  141.8327  160.4201 O.3     1  UNL1       -0.3501
      4 C         143.1173  142.0329  161.6665 C.3     1  UNL1        0.1141
      5 C         142.3071  142.2332  162.9128 C.3     1  UNL1        0.0463
      6 C         142.5100  141.3293  164.0926 C.3     1  UNL1        0.0746
      7 N         143.5231  140.2252  164.0260 N.3     1  UNL1       -0.2722
      8 C         144.3333  140.0249  162.7796 C.3     1  UNL1        0.0746
      9 C         144.1304  140.9288  161.5999 C.3     1  UNL1        0.0463
     10 C         142.1042  143.1371  161.7331 C.3     1  UNL1        0.1206
     11 N         141.9013  144.0410  160.5533 N.am    1  UNL1       -0.2748
     12 C         142.7115  143.8407  159.3070 C.2     1  UNL1        0.2529
     13 O         142.5086  144.7446  158.1271 O.2     1  UNL1       -0.2722
     14 C         143.7260  139.3213  165.2058 C.3     1  UNL1        0.0768
     15 C         142.6959  138.2841  165.5418 C.3     1  UNL1        0.0437
     16 C         141.2465  138.6631  165.6165 C.ar    1  UNL1       -0.0208
     17 C         140.7744  139.6182  166.6723 C.ar    1  UNL1       -0.0042
     18 C         139.3250  139.9972  166.7469 C.ar    1  UNL1       -0.0003
     19 C         138.3477  139.4210  165.7656 C.ar    1  UNL1       -0.0000
     20 C         138.8197  138.4658  164.7098 C.ar    1  UNL1       -0.0003
     21 C         140.2691  138.0869  164.6352 C.ar    1  UNL1       -0.0042
     22 C         140.8882  145.1451  160.6199 C.3     1  UNL1        0.0982
     23 C         140.4180  145.6522  161.9510 C.3     1  UNL1        0.0478
     24 C         139.5625  144.7836  162.8249 C.ar    1  UNL1       -0.0205
     25 C         139.7274  144.8254  164.3153 C.ar    1  UNL1       -0.0042
     26 C         138.8719  143.9568  165.1891 C.ar    1  UNL1       -0.0003
     27 C         137.8515  143.0463  164.5726 C.ar    1  UNL1       -0.0000
     28 C         137.6867  143.0045  163.0823 C.ar    1  UNL1       -0.0003
     29 C         138.5422  143.8732  162.2085 C.ar    1  UNL1       -0.0042
@<TRIPOS>BOND
     1     1     2    1
     2     2     3    1
     3     3     4    1
     4     4     5    1
     5     5     6    1
     6     6     7    1
     7     7    14    1
     8    14    15    1
     9    15    16    1
    10    16    17   ar
    11    17    18   ar
    12    18    19   ar
    13    19    20   ar
    14    20    21   ar
    15     7     8    1
    16     8     9    1
    17     4    10    1
    18    10    11    1
    19    11    22    1
    20    22    23    1
    21    23    24    1
    22    24    25   ar
    23    25    26   ar
    24    26    27   ar
    25    27    28   ar
    26    28    29   ar
    27    11    12   am
    28    12    13    2
    29    12     2    1
    30     9     4    1
    31    29    24   ar
    32    21    16   ar
@<TRIPOS>MOLECULE
*****
 29 32 0 0 0
SMALL
GASTEIGER

@<TRIPOS>ATOM
      1 C         137.8021  139.8741  161.3139 C.3     1  UNL1        0.0420
      2 C         138.5513  140.7662  162.2589 C.3     1  UNL1        0.1909
      3 O         139.4305  140.1682  163.3169 O.3     1  UNL1       -0.3501
      4 C         140.1798  141.0602  164.2619 C.3     1  UNL1        0.1141
      5 C         140.9289  141.9522  165.2068 C.3     1  UNL1        0.0463
      6 C         141.8081  141.3542  166.2648 C.3     1  UNL1        0.0746
      7 N         141.9382  139.8641  166.3778 N.3     1  UNL1       -0.2722
      8 C         141.1890  138.9721  165.4328 C.3     1  UNL1        0.0746
      9 C         140.3098  139.5701  164.3749 C.3     1  UNL1        0.0463
     10 C         140.0497  142.5503  164.1489 C.3     1  UNL1        0.1206
     11 N         139.1705  143.1483  163.0908 N.am    1  UNL1       -0.2748
     12 C         138.4213  142.2563  162.1459 C.2     1  UNL1        0.2529
     13 O         137.5420  142.8543  161.0879 O.2     1  UNL1       -0.2722
     14 C         142.8174  139.2661  167.4358 C.3     1  UNL1        0.0768
     15 C         142.4526  139.4099  168.8836 C.3     1  UNL1        0.0437
     16 C         141.7313  140.6370  169.3571 C.ar    1  UNL1       -0.0208
     17 C         142.4857  141.9165  169.5662 C.ar    1  UNL1       -0.0042
     18 C         141.7644  143.1435  170.0396 C.ar    1  UNL1       -0.0003
     19 C         140.2888  143.0911  170.3039 C.ar    1  UNL1       -0.0000
     20 C         139.5345  141.8116  170.0947 C.ar    1  UNL1       -0.0003
     21 C         140.2557  140.5845  169.6213 C.ar    1  UNL1       -0.0042
     22 C         139.0404  144.6384  162.9778 C.3     1  UNL1        0.0982
     23 C         140.1740  145.4504  162.4248 C.3     1  UNL1        0.0478
     24 C         141.5825  144.9475  162.5395 C.ar    1  UNL1       -0.0205
     25 C         142.1618  144.0858  161.4569 C.ar    1  UNL1       -0.0042
     26 C         143.5703  143.5830  161.5715 C.ar    1  UNL1       -0.0003
     27 C         144.3996  143.9419  162.7689 C.ar    1  UNL1       -0.0000
     28 C         143.8204  144.8035  163.8515 C.ar    1  UNL1       -0.0003
     29 C         142.4118  145.3063  163.7368 C.ar    1  UNL1       -0.0042
@<TRIPOS>BOND
     1     1     2    1
     2     2     3    1
     3     3     4    1
     4     4     5    1
     5     5     6    1
     6     6     7    1
     7     7    14    1
     8    14    15    1
     9    15    16    1
    10    16    17   ar
    11    17    18   ar
    12    18    19   ar
    13    19    20   ar
    14    20    21   ar
    15     7     8    1
    16     8     9    1
    17     4    10    1
    18    10    11    1
    19    11    22    1
    20    22    23    1
    21    23    24    1
    22    24    25   ar
    23    25    26   ar
    24    26    27   ar
    25    27    28   ar
    26    28    29   ar
    27    11    12   am
    28    12    13    2
    29    12     2    1
    30     9     4    1
    31    29    24   ar
    32    21    16   ar
@<TRIPOS>MOLECULE
*****
 29 32 0 0 0
SMALL
GASTEIGER

@<TRIPOS>ATOM
      1 C         139.7033  146.3048  161.5406 C.3     1  UNL1        0.0420
      2 C         140.1701  144.8837  161.6528 C.3     1  UNL1        0.1909
      3 O         139.5332  143.9617  162.6500 O.3     1  UNL1       -0.3501
      4 C         139.9999  142.5405  162.7622 C.3     1  UNL1        0.1141
      5 C         140.4667  141.1194  162.8745 C.3     1  UNL1        0.0463
      6 C         139.8298  140.1974  163.8716 C.3     1  UNL1        0.0746
      7 N         138.7263  140.6965  164.7565 N.3     1  UNL1       -0.2722
      8 C         138.2595  142.1176  164.6443 C.3     1  UNL1        0.0746
      9 C         138.8964  143.0396  163.6471 C.3     1  UNL1        0.0463
     10 C         141.1035  142.0414  161.8773 C.3     1  UNL1        0.1206
     11 N         141.7404  142.9635  160.8802 N.am    1  UNL1       -0.2748
     12 C         141.2736  144.3846  160.7679 C.2     1  UNL1        0.2529
     13 O         141.9105  145.3067  159.7708 O.2     1  UNL1       -0.2722
     14 C         138.0894  139.7744  165.7536 C.3     1  UNL1        0.0768
     15 C         138.9372  139.0659  166.7681 C.3     1  UNL1        0.0437
     16 C         139.8041  139.8552  167.7039 C.ar    1  UNL1       -0.0208
     17 C         139.2616  140.3075  169.0271 C.ar    1  UNL1       -0.0042
     18 C         140.1284  141.0968  169.9628 C.ar    1  UNL1       -0.0003
     19 C         141.5378  141.4336  169.5753 C.ar    1  UNL1       -0.0000
     20 C         142.0803  140.9812  168.2521 C.ar    1  UNL1       -0.0003
     21 C         141.2134  140.1920  167.3164 C.ar    1  UNL1       -0.0042
     22 C         142.8439  142.4644  159.9953 C.3     1  UNL1        0.0982
     23 C         144.2427  142.3604  160.5270 C.3     1  UNL1        0.0478
     24 C         144.5272  141.5070  161.7273 C.ar    1  UNL1       -0.0205
     25 C         144.0411  140.0885  161.7713 C.ar    1  UNL1       -0.0042
     26 C         144.3256  139.2351  162.9716 C.ar    1  UNL1       -0.0003
     27 C         145.0962  139.8002  164.1280 C.ar    1  UNL1       -0.0000
     28 C         145.5822  141.2185  164.0840 C.ar    1  UNL1       -0.0003
     29 C         145.2977  142.0719  162.8837 C.ar    1  UNL1       -0.0042
@<TRIPOS>BOND
     1     1     2    1
     2     2     3    1
     3     3     4    1
     4     4     5    1
     5     5     6    1
     6     6     7    1
     7     7    14    1
     8    14    15    1
     9    15    16    1
    10    16    17   ar
    11    17    18   ar
    12    18    19   ar
    13    19    20   ar
    14    20    21   ar
    15     7     8    1
    16     8     9    1
    17     4    10    1
    18    10    11    1
    19    11    22    1
    20    22    23    1
    21    23    24    1
    22    24    25   ar
    23    25    26   ar
    24    26    27   ar
    25    27    28   ar
    26    28    29   ar
    27    11    12   am
    28    12    13    2
    29    12     2    1
    30     9     4    1
    31    29    24   ar
    32    21    16   ar
@<TRIPOS>MOLECULE
*****
 29 32 0 0 0
SMALL
GASTEIGER

@<TRIPOS>ATOM
      1 C         142.6929  137.2675  158.3024 C.3     1  UNL1        0.0420
      2 C         142.5137  138.4239  159.2408 C.3     1  UNL1        0.1909
      3 O         141.6631  138.2703  160.4667 O.3     1  UNL1       -0.3501
      4 C         141.4839  139.4267  161.4051 C.3     1  UNL1        0.1141
      5 C         141.3048  140.5832  162.3434 C.3     1  UNL1        0.0463
      6 C         140.4542  140.4295  163.5693 C.3     1  UNL1        0.0746
      7 N         139.7827  139.1193  163.8568 N.3     1  UNL1       -0.2722
      8 C         139.9618  137.9629  162.9184 C.3     1  UNL1        0.0746
      9 C         140.8124  138.1166  161.6926 C.3     1  UNL1        0.0463
     10 C         142.1554  140.7368  161.1176 C.3     1  UNL1        0.1206
     11 N         143.0061  140.8905  159.8916 N.am    1  UNL1       -0.2748
     12 C         143.1852  139.7341  158.9533 C.2     1  UNL1        0.2529
     13 O         144.0359  139.8877  157.7274 O.2     1  UNL1       -0.2722
     14 C         138.9320  138.9657  165.0827 C.3     1  UNL1        0.0768
     15 C         138.9752  140.0075  166.1610 C.3     1  UNL1        0.0437
     16 C         139.9955  139.9113  167.2564 C.ar    1  UNL1       -0.0208
     17 C         139.5734  140.0515  168.6889 C.ar    1  UNL1       -0.0042
     18 C         140.5936  139.9552  169.7842 C.ar    1  UNL1       -0.0003
     19 C         142.0360  139.7188  169.4471 C.ar    1  UNL1       -0.0000
     20 C         142.4581  139.5786  168.0146 C.ar    1  UNL1       -0.0003
     21 C         141.4379  139.6749  166.9192 C.ar    1  UNL1       -0.0042
     22 C         143.6776  142.2006  159.6041 C.3     1  UNL1        0.0982
     23 C         144.8723  142.6232  160.4069 C.3     1  UNL1        0.0478
     24 C         144.7578  142.7843  161.8938 C.ar    1  UNL1       -0.0205
     25 C         145.4022  141.7851  162.8083 C.ar    1  UNL1       -0.0042
     26 C         145.2877  141.9462  164.2953 C.ar    1  UNL1       -0.0003
     27 C         144.5288  143.1066  164.8677 C.ar    1  UNL1       -0.0000
     28 C         143.8845  144.1058  163.9532 C.ar    1  UNL1       -0.0003
     29 C         143.9990  143.9447  162.4662 C.ar    1  UNL1       -0.0042
@<TRIPOS>BOND
     1     1     2    1
     2     2     3    1
     3     3     4    1
     4     4     5    1
     5     5     6    1
     6     6     7    1
     7     7    14    1
     8    14    15    1
     9    15    16    1
    10    16    17   ar
    11    17    18   ar
    12    18    19   ar
    13    19    20   ar
    14    20    21   ar
    15     7     8    1
    16     8     9    1
    17     4    10    1
    18    10    11    1
    19    11    22    1
    20    22    23    1
    21    23    24    1
    22    24    25   ar
    23    25    26   ar
    24    26    27   ar
    25    27    28   ar
    26    28    29   ar
    27    11    12   am
    28    12    13    2
    29    12     2    1
    30     9     4    1
    31    29    24   ar
    32    21    16   ar
@<TRIPOS>MOLECULE
*****
 29 32 0 0 0
SMALL
GASTEIGER

@<TRIPOS>ATOM
      1 C         139.3254  140.6344  169.4017 C.3     1  UNL1        0.0420
      2 C         139.7305  140.2739  168.0031 C.3     1  UNL1        0.1909
      3 O         140.9384  140.9123  167.3840 O.3     1  UNL1       -0.3501
      4 C         141.3435  140.5518  165.9854 C.3     1  UNL1        0.1141
      5 C         141.7485  140.1913  164.5869 C.3     1  UNL1        0.0463
      6 C         142.9564  140.8298  163.9678 C.3     1  UNL1        0.0746
      7 N         143.7592  141.8287  164.7472 N.3     1  UNL1       -0.2722
      8 C         143.3542  142.1893  166.1457 C.3     1  UNL1        0.0746
      9 C         142.1463  141.5508  166.7648 C.3     1  UNL1        0.0463
     10 C         140.5406  139.5528  165.2060 C.3     1  UNL1        0.1206
     11 N         139.3327  138.9144  165.8252 N.am    1  UNL1       -0.2748
     12 C         138.9277  139.2749  167.2237 C.2     1  UNL1        0.2529
     13 O         137.7197  138.6364  167.8429 O.2     1  UNL1       -0.2722
     14 C         144.9672  142.4672  164.1280 C.3     1  UNL1        0.0768
     15 C         144.8015  143.5034  163.0563 C.3     1  UNL1        0.0437
     16 C         143.4505  144.0993  162.7916 C.ar    1  UNL1       -0.0208
     17 C         142.8500  145.0617  163.7729 C.ar    1  UNL1       -0.0042
     18 C         141.4991  145.6576  163.5082 C.ar    1  UNL1       -0.0003
     19 C         140.7488  145.2910  162.2622 C.ar    1  UNL1       -0.0000
     20 C         141.3494  144.3286  161.2808 C.ar    1  UNL1       -0.0003
     21 C         142.7002  143.7327  161.5455 C.ar    1  UNL1       -0.0042
     22 C         138.5299  137.9154  165.0458 C.3     1  UNL1        0.0982
     23 C         139.1080  137.2867  163.8126 C.3     1  UNL1        0.0478
     24 C         139.0747  138.0260  162.5079 C.ar    1  UNL1       -0.0205
     25 C         137.8270  138.7423  162.0833 C.ar    1  UNL1       -0.0042
     26 C         137.7937  139.4816  160.7786 C.ar    1  UNL1       -0.0003
     27 C         139.0082  139.5045  159.8984 C.ar    1  UNL1       -0.0000
     28 C         140.2558  138.7882  160.3229 C.ar    1  UNL1       -0.0003
     29 C         140.2891  138.0489  161.6277 C.ar    1  UNL1       -0.0042
@<TRIPOS>BOND
     1     1     2    1
     2     2     3    1
     3     3     4    1
     4     4     5    1
     5     5     6    1
     6     6     7    1
     7     7    14    1
     8    14    15    1
     9    15    16    1
    10    16    17   ar
    11    17    18   ar
    12    18    19   ar
    13    19    20   ar
    14    20    21   ar
    15     7     8    1
    16     8     9    1
    17     4    10    1
    18    10    11    1
    19    11    22    1
    20    22    23    1
    21    23    24    1
    22    24    25   ar
    23    25    26   ar
    24    26    27   ar
    25    27    28   ar
    26    28    29   ar
    27    11    12   am
    28    12    13    2
    29    12     2    1
    30     9     4    1
    31    29    24   ar
    32    21    16   ar
