@<TRIPOS>MOLECULE
*****
 30 34 0 0 0
SMALL
GASTEIGER

@<TRIPOS>ATOM
      1 C         138.1942  139.8503  169.9887 C.ar    1  UNL1        0.1773
      2 N         138.3754  139.5134  168.5384 N.ar    1  UNL1       -0.2108
      3 C         139.7094  139.7146  167.8826 C.ar    1  UNL1        0.1327
      4 C         140.8622  140.2527  168.6772 C.ar    1  UNL1        0.0629
      5 C         142.2837  140.5545  168.3053 C.ar    1  UNL1        0.0024
      6 C         142.9810  141.0779  169.5259 C.ar    1  UNL1        0.0964
      7 N         141.9906  141.0996  170.6522 N.ar    1  UNL1       -0.2272
      8 C         140.6810  140.5895  170.1276 C.ar    1  UNL1        0.1440
      9 N         139.3470  140.3883  170.7834 N.ar    1  UNL1       -0.3214
     10 H         139.2281  140.6094  171.7353 H       1  UNL1        0.1689
     11 C         142.8996  140.3660  166.9507 C.3     1  UNL1        0.0290
     12 C         143.1912  141.5572  166.0871 C.3     1  UNL1        0.0366
     13 C         143.8072  141.3687  164.7324 C.3     1  UNL1        0.1425
     14 O         144.1315  139.9890  164.2414 O.3     1  UNL1       -0.3538
     15 C         143.8399  138.7978  165.1050 C.3     1  UNL1        0.1425
     16 C         143.2239  138.9863  166.4596 C.3     1  UNL1        0.0366
     17 N         139.8905  139.3777  166.4322 N.pl3   1  UNL1       -0.3196
     18 H         140.0143  138.4408  166.1561 H       1  UNL1        0.1481
     19 C         139.8831  140.4682  165.4023 C.3     1  UNL1        0.0704
     20 C         140.3019  140.1716  163.9928 C.3     1  UNL1        0.0209
     21 C         140.2945  141.2621  162.9629 C.3     1  UNL1        0.0177
     22 C         139.8683  142.6493  163.3425 C.3     1  UNL1        0.0578
     23 C         139.4496  142.9460  164.7519 C.3     1  UNL1        0.0177
     24 C         139.4570  141.8554  165.7819 C.3     1  UNL1        0.0209
     25 N         139.8609  143.7398  162.3126 N.3     1  UNL1       -0.2698
     26 C         139.6234  145.1616  162.7275 C.3     1  UNL1        0.1046
     27 C         139.6160  146.2522  161.6976 C.3     1  UNL1        0.1595
     28 O         139.8461  145.9209  160.2529 O.3     1  UNL1       -0.3508
     29 C         140.0836  144.4992  159.8380 C.3     1  UNL1        0.1595
     30 C         140.0910  143.4086  160.8679 C.3     1  UNL1        0.1046
@<TRIPOS>BOND
     1     1     2   ar
     2     2     3   ar
     3     3    17    1
     4    19    17    1
     5    19    20    1
     6    20    21    1
     7    21    22    1
     8    22    25    1
     9    25    26    1
    10    26    27    1
    11    27    28    1
    12    28    29    1
    13    29    30    1
    14    22    23    1
    15    23    24    1
    16     3     4   ar
    17     4     5   ar
    18     5    11    1
    19    11    12    1
    20    12    13    1
    21    13    14    1
    22    14    15    1
    23    15    16    1
    24     5     6   ar
    25     6     7   ar
    26     7     8   ar
    27     8     9   ar
    28     9     1   ar
    29    24    19    1
    30     8     4    1
    31    30    25    1
    32    16    11    1
    33    17    18    1
    34     9    10    1
@<TRIPOS>MOLECULE
*****
 30 34 0 0 0
SMALL
GASTEIGER

@<TRIPOS>ATOM
      1 C         139.9875  145.7806  161.2761 C.ar    1  UNL1        0.1773
      2 N         139.2696  144.6959  162.0230 N.ar    1  UNL1       -0.2108
      3 C         139.8980  143.3414  162.1659 C.ar    1  UNL1        0.1327
      4 C         141.2442  143.0716  161.5619 C.ar    1  UNL1        0.0629
      5 C         142.1066  141.8445  161.5396 C.ar    1  UNL1        0.0024
      6 C         143.3575  142.1709  160.7788 C.ar    1  UNL1        0.0964
      7 N         143.2682  143.5996  160.3310 N.ar    1  UNL1       -0.2272
      8 C         141.9621  144.1563  160.8150 C.ar    1  UNL1        0.1440
      9 N         141.3337  145.5108  160.6721 N.ar    1  UNL1       -0.3214
     10 H         141.8049  146.2228  160.1818 H       1  UNL1        0.1689
     11 C         141.7761  140.5231  162.1677 C.3     1  UNL1        0.0290
     12 C         140.7710  139.6161  161.5219 C.3     1  UNL1        0.0366
     13 C         140.4405  138.2947  162.1500 C.3     1  UNL1        0.1425
     14 O         141.1150  137.8801  163.4240 O.3     1  UNL1       -0.3538
     15 C         142.1202  138.7871  164.0698 C.3     1  UNL1        0.1425
     16 C         142.4507  140.1085  163.4417 C.3     1  UNL1        0.0366
     17 N         139.1800  142.2566  162.9129 N.pl3   1  UNL1       -0.3196
     18 H         138.5272  141.6865  162.4460 H       1  UNL1        0.1481
     19 C         139.4567  142.0405  164.3712 C.3     1  UNL1        0.0704
     20 C         139.0544  140.7535  165.0283 C.3     1  UNL1        0.0209
     21 C         139.3311  140.5374  166.4866 C.3     1  UNL1        0.0177
     22 C         140.0102  141.6083  167.2879 C.3     1  UNL1        0.0578
     23 C         140.4125  142.8953  166.6309 C.3     1  UNL1        0.0177
     24 C         140.1358  143.1115  165.1725 C.3     1  UNL1        0.0209
     25 N         140.2869  141.3923  168.7462 N.3     1  UNL1       -0.2698
     26 C         139.6961  140.2093  169.4545 C.3     1  UNL1        0.1046
     27 C         139.9728  139.9932  170.9128 C.3     1  UNL1        0.1595
     28 O         140.8403  140.9600  171.6629 O.3     1  UNL1       -0.3508
     29 C         141.4312  142.1429  170.9546 C.3     1  UNL1        0.1595
     30 C         141.1545  142.3591  169.4963 C.3     1  UNL1        0.1046
@<TRIPOS>BOND
     1     1     2   ar
     2     2     3   ar
     3     3    17    1
     4    19    17    1
     5    19    20    1
     6    20    21    1
     7    21    22    1
     8    22    25    1
     9    25    26    1
    10    26    27    1
    11    27    28    1
    12    28    29    1
    13    29    30    1
    14    22    23    1
    15    23    24    1
    16     3     4   ar
    17     4     5   ar
    18     5    11    1
    19    11    12    1
    20    12    13    1
    21    13    14    1
    22    14    15    1
    23    15    16    1
    24     5     6   ar
    25     6     7   ar
    26     7     8   ar
    27     8     9   ar
    28     9     1   ar
    29    24    19    1
    30     8     4    1
    31    30    25    1
    32    16    11    1
    33    17    18    1
    34     9    10    1
@<TRIPOS>MOLECULE
*****
 30 34 0 0 0
SMALL
GASTEIGER

@<TRIPOS>ATOM
      1 C         142.8257  143.2666  160.3173 C.ar    1  UNL1        0.1773
      2 N         143.0572  142.1879  161.3335 N.ar    1  UNL1       -0.2108
      3 C         141.8896  141.5134  161.9905 C.ar    1  UNL1        0.1327
      4 C         140.4905  141.9176  161.6313 C.ar    1  UNL1        0.0629
      5 C         139.1526  141.4359  162.1089 C.ar    1  UNL1        0.0024
      6 C         138.0943  142.2169  161.3878 C.ar    1  UNL1        0.0964
      7 N         138.7780  143.1813  160.4645 N.ar    1  UNL1       -0.2272
      8 C         140.2590  142.9963  160.6151 C.ar    1  UNL1        0.1440
      9 N         141.4266  143.6708  159.9581 N.ar    1  UNL1       -0.3214
     10 H         141.2747  144.3788  159.2911 H       1  UNL1        0.1689
     11 C         138.9148  140.3618  163.1285 C.3     1  UNL1        0.0290
     12 C         139.1927  138.9280  162.7863 C.3     1  UNL1        0.0366
     13 C         138.9549  137.8539  163.8060 C.3     1  UNL1        0.1425
     14 O         138.4393  138.2134  165.1679 O.3     1  UNL1       -0.3538
     15 C         138.1615  139.6472  165.5101 C.3     1  UNL1        0.1425
     16 C         138.3992  140.7213  164.4904 C.3     1  UNL1        0.0366
     17 N         142.1211  140.4346  163.0068 N.pl3   1  UNL1       -0.3196
     18 H         142.4252  139.5438  162.7185 H       1  UNL1        0.1481
     19 C         141.8894  140.7133  164.4624 C.3     1  UNL1        0.0704
     20 C         141.8462  139.5809  165.4452 C.3     1  UNL1        0.0209
     21 C         141.6144  139.8595  166.9007 C.3     1  UNL1        0.0177
     22 C         141.4259  141.2705  167.3735 C.3     1  UNL1        0.0578
     23 C         141.4691  142.4028  166.3908 C.3     1  UNL1        0.0177
     24 C         141.7008  142.1243  164.9352 C.3     1  UNL1        0.0209
     25 N         141.1942  141.5491  168.8291 N.3     1  UNL1       -0.2698
     26 C         140.2208  142.6126  169.2434 C.3     1  UNL1        0.1046
     27 C         139.9891  142.8912  170.6990 C.3     1  UNL1        0.1595
     28 O         140.7307  142.1064  171.7402 O.3     1  UNL1       -0.3508
     29 C         141.7040  141.0430  171.3259 C.3     1  UNL1        0.1595
     30 C         141.9358  140.7643  169.8703 C.3     1  UNL1        0.1046
@<TRIPOS>BOND
     1     1     2   ar
     2     2     3   ar
     3     3    17    1
     4    19    17    1
     5    19    20    1
     6    20    21    1
     7    21    22    1
     8    22    25    1
     9    25    26    1
    10    26    27    1
    11    27    28    1
    12    28    29    1
    13    29    30    1
    14    22    23    1
    15    23    24    1
    16     3     4   ar
    17     4     5   ar
    18     5    11    1
    19    11    12    1
    20    12    13    1
    21    13    14    1
    22    14    15    1
    23    15    16    1
    24     5     6   ar
    25     6     7   ar
    26     7     8   ar
    27     8     9   ar
    28     9     1   ar
    29    24    19    1
    30     8     4    1
    31    30    25    1
    32    16    11    1
    33    17    18    1
    34     9    10    1
@<TRIPOS>MOLECULE
*****
 30 34 0 0 0
SMALL
GASTEIGER

@<TRIPOS>ATOM
      1 C         137.6626  138.5575  161.6435 C.ar    1  UNL1        0.1773
      2 N         138.9890  138.4828  162.3398 N.ar    1  UNL1       -0.2108
      3 C         139.8404  139.7113  162.4654 C.ar    1  UNL1        0.1327
      4 C         139.3654  141.0146  161.8947 C.ar    1  UNL1        0.0629
      5 C         139.9819  142.3817  161.8654 C.ar    1  UNL1        0.0024
      6 C         139.0365  143.3014  161.1510 C.ar    1  UNL1        0.0964
      7 N         137.8356  142.5027  160.7387 N.ar    1  UNL1       -0.2272
      8 C         138.0389  141.0893  161.1983 C.ar    1  UNL1        0.1440
      9 N         137.1875  139.8608  161.0727 N.ar    1  UNL1       -0.3214
     10 H         136.3169  139.9098  160.6157 H       1  UNL1        0.1689
     11 C         141.3106  142.7623  162.4483 C.3     1  UNL1        0.0290
     12 C         142.5775  142.3571  161.7549 C.3     1  UNL1        0.0366
     13 C         143.9062  142.7377  162.3378 C.3     1  UNL1        0.1425
     14 O         143.9680  143.5235  163.6139 O.3     1  UNL1       -0.3538
     15 C         142.7011  143.9287  164.3073 C.3     1  UNL1        0.1425
     16 C         141.3724  143.5481  163.7244 C.3     1  UNL1        0.0366
     17 N         141.1669  139.6366  163.1618 N.pl3   1  UNL1       -0.3196
     18 H         141.9557  139.2936  162.6828 H       1  UNL1        0.1481
     19 C         141.2916  140.0843  164.5879 C.3     1  UNL1        0.0704
     20 C         140.0611  140.2763  165.4241 C.3     1  UNL1        0.0209
     21 C         140.1857  140.7241  166.8502 C.3     1  UNL1        0.0177
     22 C         141.5409  140.9798  167.4403 C.3     1  UNL1        0.0578
     23 C         142.7713  140.7878  166.6043 C.3     1  UNL1        0.0177
     24 C         142.6467  140.3400  165.1780 C.3     1  UNL1        0.0209
     25 N         141.6655  141.4276  168.8664 N.3     1  UNL1       -0.2698
     26 C         142.6206  142.5267  169.2267 C.3     1  UNL1        0.1046
     27 C         142.7452  142.9745  170.6529 C.3     1  UNL1        0.1595
     28 O         141.9149  142.3231  171.7188 O.3     1  UNL1       -0.3508
     29 C         140.9599  141.2240  171.3586 C.3     1  UNL1        0.1595
     30 C         140.8352  140.7762  169.9324 C.3     1  UNL1        0.1046
@<TRIPOS>BOND
     1     1     2   ar
     2     2     3   ar
     3     3    17    1
     4    19    17    1
     5    19    20    1
     6    20    21    1
     7    21    22    1
     8    22    25    1
     9    25    26    1
    10    26    27    1
    11    27    28    1
    12    28    29    1
    13    29    30    1
    14    22    23    1
    15    23    24    1
    16     3     4   ar
    17     4     5   ar
    18     5    11    1
    19    11    12    1
    20    12    13    1
    21    13    14    1
    22    14    15    1
    23    15    16    1
    24     5     6   ar
    25     6     7   ar
    26     7     8   ar
    27     8     9   ar
    28     9     1   ar
    29    24    19    1
    30     8     4    1
    31    30    25    1
    32    16    11    1
    33    17    18    1
    34     9    10    1
@<TRIPOS>MOLECULE
*****
 30 34 0 0 0
SMALL
GASTEIGER

@<TRIPOS>ATOM
      1 C         144.8887  142.7220  161.0488 C.ar    1  UNL1        0.1773
      2 N         144.9708  141.7526  162.1905 N.ar    1  UNL1       -0.2108
      3 C         143.7713  140.9346  162.5675 C.ar    1  UNL1        0.1327
      4 C         142.4898  141.0860  161.8028 C.ar    1  UNL1        0.0629
      5 C         141.1529  140.4204  161.9427 C.ar    1  UNL1        0.0024
      6 C         140.2446  140.9784  160.8874 C.ar    1  UNL1        0.0964
      7 N         141.0201  141.9888  160.0953 N.ar    1  UNL1       -0.2272
      8 C         142.4078  142.0553  160.6611 C.ar    1  UNL1        0.1440
      9 N         143.6072  142.8733  160.2841 N.ar    1  UNL1       -0.3214
     10 H         143.5534  143.5096  159.5347 H       1  UNL1        0.1689
     11 C         140.7883  139.3795  162.9594 C.3     1  UNL1        0.0290
     12 C         141.3469  137.9920  162.8458 C.3     1  UNL1        0.0366
     13 C         140.9823  136.9512  163.8625 C.3     1  UNL1        0.1425
     14 O         140.0591  137.2977  164.9928 O.3     1  UNL1       -0.3538
     15 C         139.5006  138.6852  165.1064 C.3     1  UNL1        0.1425
     16 C         139.8651  139.7260  164.0897 C.3     1  UNL1        0.0366
     17 N         143.8534  139.9652  163.7093 N.pl3   1  UNL1       -0.3196
     18 H         144.2745  139.0850  163.5784 H       1  UNL1        0.1481
     19 C         143.2939  140.3370  165.0505 C.3     1  UNL1        0.0704
     20 C         142.9894  141.7718  165.3646 C.3     1  UNL1        0.0209
     21 C         142.4299  142.1435  166.7057 C.3     1  UNL1        0.0177
     22 C         142.1748  141.0805  167.7328 C.3     1  UNL1        0.0578
     23 C         142.4793  139.6457  167.4187 C.3     1  UNL1        0.0177
     24 C         143.0388  139.2739  166.0775 C.3     1  UNL1        0.0209
     25 N         141.6153  141.4522  169.0740 N.3     1  UNL1       -0.2698
     26 C         142.1770  140.8321  170.3190 C.3     1  UNL1        0.1046
     27 C         141.6174  141.2038  171.6601 C.3     1  UNL1        0.1595
     28 O         140.4963  142.1957  171.7563 O.3     1  UNL1       -0.3508
     29 C         139.9346  142.8158  170.5114 C.3     1  UNL1        0.1595
     30 C         140.4941  142.4440  169.1701 C.3     1  UNL1        0.1046
@<TRIPOS>BOND
     1     1     2   ar
     2     2     3   ar
     3     3    17    1
     4    19    17    1
     5    19    20    1
     6    20    21    1
     7    21    22    1
     8    22    25    1
     9    25    26    1
    10    26    27    1
    11    27    28    1
    12    28    29    1
    13    29    30    1
    14    22    23    1
    15    23    24    1
    16     3     4   ar
    17     4     5   ar
    18     5    11    1
    19    11    12    1
    20    12    13    1
    21    13    14    1
    22    14    15    1
    23    15    16    1
    24     5     6   ar
    25     6     7   ar
    26     7     8   ar
    27     8     9   ar
    28     9     1   ar
    29    24    19    1
    30     8     4    1
    31    30    25    1
    32    16    11    1
    33    17    18    1
    34     9    10    1
@<TRIPOS>MOLECULE
*****
 30 34 0 0 0
SMALL
GASTEIGER

@<TRIPOS>ATOM
      1 C         137.7422  138.2587  161.6768 C.ar    1  UNL1        0.1773
      2 N         137.7339  139.5829  162.3813 N.ar    1  UNL1       -0.2108
      3 C         138.9813  140.4146  162.4297 C.ar    1  UNL1        0.1327
      4 C         140.2370  139.9221  161.7736 C.ar    1  UNL1        0.0629
      5 C         141.6088  140.5174  161.6576 C.ar    1  UNL1        0.0024
      6 C         142.4651  139.5612  160.8813 C.ar    1  UNL1        0.0964
      7 N         141.6223  138.3748  160.5176 N.ar    1  UNL1       -0.2272
      8 C         140.2453  138.5979  161.0691 C.ar    1  UNL1        0.1440
      9 N         138.9979  137.7662  161.0207 N.ar    1  UNL1       -0.3214
     10 H         139.0033  136.8971  160.5583 H       1  UNL1        0.1689
     11 C         142.0475  141.8373  162.2192 C.3     1  UNL1        0.0290
     12 C         142.8828  141.8823  163.4643 C.3     1  UNL1        0.0366
     13 C         143.3214  143.2022  164.0259 C.3     1  UNL1        0.1425
     14 O         142.9248  144.4772  163.3425 O.3     1  UNL1       -0.3538
     15 C         142.0896  144.4322  162.0974 C.3     1  UNL1        0.1425
     16 C         141.6509  143.1123  161.5358 C.3     1  UNL1        0.0366
     17 N         138.9729  141.7389  163.1343 N.pl3   1  UNL1       -0.3196
     18 H         138.6515  142.5433  162.6665 H       1  UNL1        0.1481
     19 C         139.4542  141.8374  164.5515 C.3     1  UNL1        0.0704
     20 C         139.7485  143.1802  165.1520 C.3     1  UNL1        0.0209
     21 C         140.2298  143.2787  166.5692 C.3     1  UNL1        0.0177
     22 C         140.4167  142.0346  167.3861 C.3     1  UNL1        0.0578
     23 C         140.1224  140.6919  166.7857 C.3     1  UNL1        0.0177
     24 C         139.6411  140.5933  165.3683 C.3     1  UNL1        0.0209
     25 N         140.8980  142.1332  168.8033 N.3     1  UNL1       -0.2698
     26 C         142.2756  142.6509  169.0933 C.3     1  UNL1        0.1046
     27 C         142.7569  142.7495  170.5105 C.3     1  UNL1        0.1595
     28 O         141.8606  142.3303  171.6379 O.3     1  UNL1       -0.3508
     29 C         140.4829  141.8126  171.3479 C.3     1  UNL1        0.1595
     30 C         140.0016  141.7140  169.9306 C.3     1  UNL1        0.1046
@<TRIPOS>BOND
     1     1     2   ar
     2     2     3   ar
     3     3    17    1
     4    19    17    1
     5    19    20    1
     6    20    21    1
     7    21    22    1
     8    22    25    1
     9    25    26    1
    10    26    27    1
    11    27    28    1
    12    28    29    1
    13    29    30    1
    14    22    23    1
    15    23    24    1
    16     3     4   ar
    17     4     5   ar
    18     5    11    1
    19    11    12    1
    20    12    13    1
    21    13    14    1
    22    14    15    1
    23    15    16    1
    24     5     6   ar
    25     6     7   ar
    26     7     8   ar
    27     8     9   ar
    28     9     1   ar
    29    24    19    1
    30     8     4    1
    31    30    25    1
    32    16    11    1
    33    17    18    1
    34     9    10    1
@<TRIPOS>MOLECULE
*****
 30 34 0 0 0
SMALL
GASTEIGER

@<TRIPOS>ATOM
      1 C         143.9640  137.9328  161.5199 C.ar    1  UNL1        0.1773
      2 N         142.6957  137.9385  162.3207 N.ar    1  UNL1       -0.2108
      3 C         141.9382  139.2182  162.5167 C.ar    1  UNL1        0.1327
      4 C         142.4490  140.4923  161.9119 C.ar    1  UNL1        0.0629
      5 C         141.9216  141.8963  161.9348 C.ar    1  UNL1        0.0024
      6 C         142.8640  142.7584  161.1482 C.ar    1  UNL1        0.0964
      7 N         143.9738  141.8872  160.6391 N.ar    1  UNL1       -0.2272
      8 C         143.7172  140.4866  161.1111 C.ar    1  UNL1        0.1440
      9 N         144.4748  139.2068  160.9151 N.ar    1  UNL1       -0.3214
     10 H         145.3072  139.2031  160.3895 H       1  UNL1        0.1689
     11 C         140.6713  142.3573  162.6235 C.3     1  UNL1        0.0290
     12 C         140.7627  143.1247  163.9092 C.3     1  UNL1        0.0366
     13 C         139.5124  143.5857  164.5979 C.3     1  UNL1        0.1425
     14 O         138.1708  143.2794  164.0010 O.3     1  UNL1       -0.3538
     15 C         138.0795  142.5121  162.7154 C.3     1  UNL1        0.1425
     16 C         139.3298  142.0511  162.0267 C.3     1  UNL1        0.0366
     17 N         140.6698  139.2239  163.3175 N.pl3   1  UNL1       -0.3196
     18 H         139.8295  138.9113  162.9109 H       1  UNL1        0.1481
     19 C         140.6818  139.7057  164.7379 C.3     1  UNL1        0.0704
     20 C         141.9868  139.9276  165.4437 C.3     1  UNL1        0.0209
     21 C         141.9988  140.4095  166.8641 C.3     1  UNL1        0.0177
     22 C         140.7059  140.6695  167.5789 C.3     1  UNL1        0.0578
     23 C         139.4010  140.4476  166.8732 C.3     1  UNL1        0.0177
     24 C         139.3889  139.9658  165.4527 C.3     1  UNL1        0.0209
     25 N         140.7179  141.1513  168.9993 N.3     1  UNL1       -0.2698
     26 C         141.4720  140.3846  170.0450 C.3     1  UNL1        0.1046
     27 C         141.4841  140.8665  171.4654 C.3     1  UNL1        0.1595
     28 O         140.7420  142.1150  171.8402 O.3     1  UNL1       -0.3508
     29 C         139.9879  142.8817  170.7945 C.3     1  UNL1        0.1595
     30 C         139.9759  142.3999  169.3740 C.3     1  UNL1        0.1046
@<TRIPOS>BOND
     1     1     2   ar
     2     2     3   ar
     3     3    17    1
     4    19    17    1
     5    19    20    1
     6    20    21    1
     7    21    22    1
     8    22    25    1
     9    25    26    1
    10    26    27    1
    11    27    28    1
    12    28    29    1
    13    29    30    1
    14    22    23    1
    15    23    24    1
    16     3     4   ar
    17     4     5   ar
    18     5    11    1
    19    11    12    1
    20    12    13    1
    21    13    14    1
    22    14    15    1
    23    15    16    1
    24     5     6   ar
    25     6     7   ar
    26     7     8   ar
    27     8     9   ar
    28     9     1   ar
    29    24    19    1
    30     8     4    1
    31    30    25    1
    32    16    11    1
    33    17    18    1
    34     9    10    1
@<TRIPOS>MOLECULE
*****
 30 34 0 0 0
SMALL
GASTEIGER

@<TRIPOS>ATOM
      1 C         145.0942  142.1097  161.5051 C.ar    1  UNL1        0.1773
      2 N         144.2238  141.1836  162.3018 N.ar    1  UNL1       -0.2108
      3 C         142.7445  141.4210  162.3738 C.ar    1  UNL1        0.1327
      4 C         142.1355  142.5847  161.6492 C.ar    1  UNL1        0.0629
      5 C         140.7199  143.0679  161.5371 C.ar    1  UNL1        0.0024
      6 C         140.7154  144.2926  160.6711 C.ar    1  UNL1        0.0964
      7 N         142.1282  144.5664  160.2481 N.ar    1  UNL1       -0.2272
      8 C         143.0059  143.5108  160.8526 C.ar    1  UNL1        0.1440
      9 N         144.4852  143.2733  160.7805 N.ar    1  UNL1       -0.3214
     10 H         145.0564  143.8812  160.2576 H       1  UNL1        0.1689
     11 C         139.5196  142.4370  162.1784 C.3     1  UNL1        0.0290
     12 C         138.8321  141.2831  161.5107 C.3     1  UNL1        0.0366
     13 C         137.6318  140.6522  162.1519 C.3     1  UNL1        0.1425
     14 O         137.1189  141.1752  163.4609 O.3     1  UNL1       -0.3538
     15 C         137.8064  142.3291  164.1286 C.3     1  UNL1        0.1425
     16 C         139.0067  142.9600  163.4873 C.3     1  UNL1        0.0366
     17 N         141.8741  140.4948  163.1705 N.pl3   1  UNL1       -0.3196
     18 H         141.4727  139.7052  162.7408 H       1  UNL1        0.1481
     19 C         141.6154  140.7717  164.6219 C.3     1  UNL1        0.0704
     20 C         142.3920  141.8410  165.3315 C.3     1  UNL1        0.0209
     21 C         142.1333  142.1178  166.7828 C.3     1  UNL1        0.0177
     22 C         141.0980  141.3254  167.5246 C.3     1  UNL1        0.0578
     23 C         140.3215  140.2561  166.8150 C.3     1  UNL1        0.0177
     24 C         140.5801  139.9792  165.3636 C.3     1  UNL1        0.0209
     25 N         140.8393  141.6022  168.9759 N.3     1  UNL1       -0.2698
     26 C         141.2822  140.6181  170.0177 C.3     1  UNL1        0.1046
     27 C         141.0235  140.8949  171.4691 C.3     1  UNL1        0.1595
     28 O         140.3219  142.1559  171.8786 O.3     1  UNL1       -0.3508
     29 C         139.8791  143.1400  170.8369 C.3     1  UNL1        0.1595
     30 C         140.1378  142.8632  169.3855 C.3     1  UNL1        0.1046
@<TRIPOS>BOND
     1     1     2   ar
     2     2     3   ar
     3     3    17    1
     4    19    17    1
     5    19    20    1
     6    20    21    1
     7    21    22    1
     8    22    25    1
     9    25    26    1
    10    26    27    1
    11    27    28    1
    12    28    29    1
    13    29    30    1
    14    22    23    1
    15    23    24    1
    16     3     4   ar
    17     4     5   ar
    18     5    11    1
    19    11    12    1
    20    12    13    1
    21    13    14    1
    22    14    15    1
    23    15    16    1
    24     5     6   ar
    25     6     7   ar
    26     7     8   ar
    27     8     9   ar
    28     9     1   ar
    29    24    19    1
    30     8     4    1
    31    30    25    1
    32    16    11    1
    33    17    18    1
    34     9    10    1
@<TRIPOS>MOLECULE
*****
 30 34 0 0 0
SMALL
GASTEIGER

@<TRIPOS>ATOM
      1 C         137.6244  137.8389  166.8238 C.ar    1  UNL1        0.1773
      2 N         138.4073  137.3969  165.6231 N.ar    1  UNL1       -0.2108
      3 C         139.6363  138.1510  165.2099 C.ar    1  UNL1        0.1327
      4 C         140.0824  139.3472  165.9974 C.ar    1  UNL1        0.0629
      5 C         141.2441  140.2816  165.8319 C.ar    1  UNL1        0.0024
      6 C         141.1791  141.3011  166.9303 C.ar    1  UNL1        0.0964
      7 N         139.9772  140.9968  167.7746 N.ar    1  UNL1       -0.2272
      8 C         139.2994  139.7892  167.1980 C.ar    1  UNL1        0.1440
      9 N         138.0704  139.0350  167.6112 N.ar    1  UNL1       -0.3214
     10 H         137.5565  139.3252  168.3992 H       1  UNL1        0.1689
     11 C         142.2875  140.2092  164.7568 C.3     1  UNL1        0.0290
     12 C         143.4789  139.3139  164.9270 C.3     1  UNL1        0.0366
     13 C         144.5224  139.2414  163.8519 C.3     1  UNL1        0.1425
     14 O         144.3746  140.0643  162.6065 O.3     1  UNL1       -0.3538
     15 C         143.1832  140.9596  162.4363 C.3     1  UNL1        0.1425
     16 C         142.1397  141.0321  163.5114 C.3     1  UNL1        0.0366
     17 N         140.4193  137.7090  164.0092 N.pl3   1  UNL1       -0.3196
     18 H         141.1967  137.1151  164.1198 H       1  UNL1        0.1481
     19 C         140.0178  138.1718  162.6401 C.3     1  UNL1        0.0704
     20 C         141.0033  138.1158  161.5105 C.3     1  UNL1        0.0209
     21 C         140.6018  138.5786  160.1414 C.3     1  UNL1        0.0177
     22 C         139.2149  139.0974  159.9017 C.3     1  UNL1        0.0578
     23 C         138.2295  139.1534  161.0312 C.3     1  UNL1        0.0177
     24 C         138.6310  138.6906  162.4004 C.3     1  UNL1        0.0209
     25 N         138.8135  139.5601  158.5326 N.3     1  UNL1       -0.2698
     26 C         139.4664  138.9675  157.3191 C.3     1  UNL1        0.1046
     27 C         139.0649  139.4302  155.9499 C.3     1  UNL1        0.1595
     28 O         138.0105  140.4857  155.7942 O.3     1  UNL1       -0.3508
     29 C         137.3576  141.0784  157.0076 C.3     1  UNL1        0.1595
     30 C         137.7591  140.6156  158.3768 C.3     1  UNL1        0.1046
@<TRIPOS>BOND
     1     1     2   ar
     2     2     3   ar
     3     3    17    1
     4    19    17    1
     5    19    20    1
     6    20    21    1
     7    21    22    1
     8    22    25    1
     9    25    26    1
    10    26    27    1
    11    27    28    1
    12    28    29    1
    13    29    30    1
    14    22    23    1
    15    23    24    1
    16     3     4   ar
    17     4     5   ar
    18     5    11    1
    19    11    12    1
    20    12    13    1
    21    13    14    1
    22    14    15    1
    23    15    16    1
    24     5     6   ar
    25     6     7   ar
    26     7     8   ar
    27     8     9   ar
    28     9     1   ar
    29    24    19    1
    30     8     4    1
    31    30    25    1
    32    16    11    1
    33    17    18    1
    34     9    10    1
