@<TRIPOS>MOLECULE
*****
 37 41 0 0 0
SMALL
GASTEIGER

@<TRIPOS>ATOM
      1 C         145.6547  141.9108  163.2787 C.3     1  UNL1        0.0553
      2 C         144.8024  141.7501  162.0549 C.ar    1  UNL1        0.0935
      3 N         144.8005  140.5687  161.1307 N.ar    1  UNL1       -0.1727
      4 N         143.7992  140.8311  160.0449 N.ar    1  UNL1       -0.2558
      5 C         143.1824  142.1747  160.2981 C.ar    1  UNL1        0.0704
      6 C         142.1304  142.8346  159.4568 C.3     1  UNL1        0.0531
      7 C         143.8024  142.7428  161.5403 C.ar    1  UNL1        0.0792
      8 C         143.4722  139.9114  158.9060 C.3     1  UNL1        0.1083
      9 C         142.7216  138.6382  159.1619 C.3     1  UNL1        0.0459
     10 C         142.3946  137.7184  158.0230 C.3     1  UNL1        0.0955
     11 N         142.8183  138.0719  156.6281 N.am    1  UNL1       -0.2775
     12 C         142.4913  137.1521  155.4892 C.2     1  UNL1        0.2525
     13 O         142.9150  137.5055  154.0943 O.2     1  UNL1       -0.2723
     14 C         143.5690  139.3451  156.3722 C.3     1  UNL1        0.0955
     15 C         143.8959  140.2648  157.5112 C.3     1  UNL1        0.0459
     16 C         141.7406  135.8789  155.7451 C.3     1  UNL1        0.1869
     17 C         142.4887  134.5937  155.9415 C.3     1  UNL1        0.0417
     18 O         140.2418  135.8910  155.8047 O.3     1  UNL1       -0.3758
     19 H         139.9178  134.9930  155.9767 H       1  UNL1        0.2110
     20 N         143.4792  144.0703  162.1593 N.pl3   1  UNL1       -0.2806
     21 H         144.0864  144.8345  162.0302 H       1  UNL1        0.1551
     22 C         142.2310  144.2336  162.9750 C.ar    1  UNL1        0.2208
     23 N         141.2254  145.2833  162.6052 N.ar    1  UNL1       -0.2111
     24 C         139.9772  145.4466  163.4208 C.ar    1  UNL1        0.1147
     25 C         139.7346  144.5601  164.6063 C.ar    1  UNL1        0.0946
     26 CL        138.4864  144.7234  165.4220 Cl      1  UNL1       -0.0790
     27 C         140.7403  143.5103  164.9761 C.ar    1  UNL1        0.0992
     28 N         141.9884  143.3471  164.1604 N.ar    1  UNL1       -0.2126
     29 C         140.4977  142.6238  166.1616 C.ar    1  UNL1        0.0572
     30 C         141.0562  142.8219  167.5396 C.ar    1  UNL1        0.1235
     31 N         140.5577  141.7041  168.4068 N.ar    1  UNL1       -0.1634
     32 N         139.6911  140.8153  167.5648 N.ar    1  UNL1       -0.2281
     33 C         138.9309  139.5618  167.8823 C.ar    1  UNL1        0.1004
     34 C         138.1337  138.8767  166.8122 C.ar    1  UNL1        0.0207
     35 C         138.0967  139.4452  165.4246 C.ar    1  UNL1        0.0031
     36 C         138.8568  140.6987  165.1071 C.ar    1  UNL1        0.0193
     37 C         139.6540  141.3837  166.1771 C.ar    1  UNL1        0.0858
@<TRIPOS>BOND
     1     1     2    1
     2     2     3   ar
     3     3     4   ar
     4     4     8    1
     5     8     9    1
     6     9    10    1
     7    10    11    1
     8    11    12   am
     9    12    13    2
    10    12    16    1
    11    16    17    1
    12    16    18    1
    13    11    14    1
    14    14    15    1
    15     4     5   ar
    16     5     6    1
    17     5     7   ar
    18     7    20    1
    19    20    22    1
    20    22    23   ar
    21    23    24   ar
    22    24    25   ar
    23    25    26    1
    24    25    27   ar
    25    27    29    1
    26    29    30   ar
    27    30    31   ar
    28    31    32   ar
    29    32    33   ar
    30    33    34   ar
    31    34    35   ar
    32    35    36   ar
    33    36    37   ar
    34    27    28   ar
    35     7     2   ar
    36    28    22   ar
    37    15     8    1
    38    37    29   ar
    39    37    32   ar
    40    18    19    1
    41    20    21    1
@<TRIPOS>MOLECULE
*****
 37 41 0 0 0
SMALL
GASTEIGER

@<TRIPOS>ATOM
      1 C         138.6512  137.6636  162.5522 C.3     1  UNL1        0.0553
      2 C         138.7887  138.8257  163.4906 C.ar    1  UNL1        0.0935
      3 N         139.5697  138.8373  164.7712 N.ar    1  UNL1       -0.1727
      4 N         139.4330  140.1991  165.3852 N.ar    1  UNL1       -0.2558
      5 C         138.5677  141.0292  164.4840 C.ar    1  UNL1        0.0704
      6 C         138.1703  142.4572  164.7135 C.3     1  UNL1        0.0531
      7 C         138.1695  140.1804  163.3131 C.ar    1  UNL1        0.0792
      8 C         140.0529  140.6514  166.6741 C.3     1  UNL1        0.1083
      9 C         141.2292  141.5820  166.6546 C.3     1  UNL1        0.0459
     10 C         141.8491  142.0344  167.9435 C.3     1  UNL1        0.0955
     11 N         141.2927  141.5560  169.2517 N.am    1  UNL1       -0.2775
     12 C         141.9127  142.0083  170.5406 C.2     1  UNL1        0.2525
     13 O         141.3563  141.5300  171.8490 O.2     1  UNL1       -0.2723
     14 C         140.1165  140.6254  169.2712 C.3     1  UNL1        0.0955
     15 C         139.4966  140.1731  167.9823 C.3     1  UNL1        0.0459
     16 C         143.0889  142.9390  170.5211 C.3     1  UNL1        0.1869
     17 C         144.4036  142.4745  169.9683 C.3     1  UNL1        0.0417
     18 O         142.9504  144.3341  171.0545 O.3     1  UNL1       -0.3758
     19 H         143.7974  144.7989  170.9680 H       1  UNL1        0.2110
     20 N         137.3040  140.6106  162.1660 N.pl3   1  UNL1       -0.2806
     21 H         136.3268  140.5031  162.2193 H       1  UNL1        0.1551
     22 C         137.9272  141.2047  160.9378 C.ar    1  UNL1        0.2208
     23 N         138.6392  142.5224  161.0205 N.ar    1  UNL1       -0.2111
     24 C         139.2624  143.1165  159.7922 C.ar    1  UNL1        0.1147
     25 C         139.1737  142.3930  158.4813 C.ar    1  UNL1        0.0946
     26 CL        139.7970  142.9871  157.2530 Cl      1  UNL1       -0.0790
     27 C         138.4617  141.0752  158.3986 C.ar    1  UNL1        0.0992
     28 N         137.8385  140.4812  159.6268 N.ar    1  UNL1       -0.2126
     29 C         138.3730  140.3516  157.0876 C.ar    1  UNL1        0.0572
     30 C         139.3772  139.3760  156.5494 C.ar    1  UNL1        0.1235
     31 N         138.8894  138.8981  155.2139 N.ar    1  UNL1       -0.1634
     32 N         137.5837  139.5784  154.9267 N.ar    1  UNL1       -0.2281
     33 C         136.6441  139.4958  153.7604 C.ar    1  UNL1        0.1004
     34 C         135.3854  140.3117  153.7522 C.ar    1  UNL1        0.0207
     35 C         135.0663  141.2100  154.9103 C.ar    1  UNL1        0.0031
     36 C         136.0059  141.2925  156.0766 C.ar    1  UNL1        0.0193
     37 C         137.2646  140.4767  156.0848 C.ar    1  UNL1        0.0858
@<TRIPOS>BOND
     1     1     2    1
     2     2     3   ar
     3     3     4   ar
     4     4     8    1
     5     8     9    1
     6     9    10    1
     7    10    11    1
     8    11    12   am
     9    12    13    2
    10    12    16    1
    11    16    17    1
    12    16    18    1
    13    11    14    1
    14    14    15    1
    15     4     5   ar
    16     5     6    1
    17     5     7   ar
    18     7    20    1
    19    20    22    1
    20    22    23   ar
    21    23    24   ar
    22    24    25   ar
    23    25    26    1
    24    25    27   ar
    25    27    29    1
    26    29    30   ar
    27    30    31   ar
    28    31    32   ar
    29    32    33   ar
    30    33    34   ar
    31    34    35   ar
    32    35    36   ar
    33    36    37   ar
    34    27    28   ar
    35     7     2   ar
    36    28    22   ar
    37    15     8    1
    38    37    29   ar
    39    37    32   ar
    40    18    19    1
    41    20    21    1
@<TRIPOS>MOLECULE
*****
 37 41 0 0 0
SMALL
GASTEIGER

@<TRIPOS>ATOM
      1 C         140.8890  145.5076  162.3174 C.3     1  UNL1        0.0553
      2 C         140.7920  144.6229  161.1101 C.ar    1  UNL1        0.0935
      3 N         139.5704  144.4159  160.2645 N.ar    1  UNL1       -0.1727
      4 N         139.9229  143.4548  159.1680 N.ar    1  UNL1       -0.2558
      5 C         141.3623  143.0678  159.3359 C.ar    1  UNL1        0.0704
      6 C         142.1299  142.1246  158.4579 C.3     1  UNL1        0.0531
      7 C         141.8995  143.7897  160.5362 C.ar    1  UNL1        0.0792
      8 C         138.9983  142.9665  158.0926 C.3     1  UNL1        0.1083
      9 C         138.1752  141.7323  158.3145 C.3     1  UNL1        0.0459
     10 C         137.2506  141.2439  157.2390 C.3     1  UNL1        0.0955
     11 N         137.1492  141.9899  155.9416 N.am    1  UNL1       -0.2775
     12 C         136.2246  141.5015  154.8661 C.2     1  UNL1        0.2525
     13 O         136.1231  142.2474  153.5686 O.2     1  UNL1       -0.2723
     14 C         137.9723  143.2241  155.7196 C.3     1  UNL1        0.0955
     15 C         138.8969  143.7123  156.7952 C.3     1  UNL1        0.0459
     16 C         135.4015  140.2673  155.0881 C.3     1  UNL1        0.1869
     17 C         133.9761  140.3877  155.5395 C.3     1  UNL1        0.0417
     18 O         136.0037  138.9128  154.8586 O.3     1  UNL1       -0.3758
     19 H         135.3421  138.2288  155.0462 H       1  UNL1        0.2110
     20 N         143.2984  143.6951  161.0690 N.pl3   1  UNL1       -0.2806
     21 H         143.9645  144.3785  160.8272 H       1  UNL1        0.1551
     22 C         143.6826  142.5592  161.9702 C.ar    1  UNL1        0.2208
     23 N         145.0335  142.5428  162.6220 N.ar    1  UNL1       -0.2111
     24 C         145.4176  141.4069  163.5233 C.ar    1  UNL1        0.1147
     25 C         144.4508  140.2875  163.7727 C.ar    1  UNL1        0.0946
     26 CL        144.8350  139.1516  164.6740 Cl      1  UNL1       -0.0790
     27 C         143.0999  140.3039  163.1209 C.ar    1  UNL1        0.0992
     28 N         142.7158  141.4397  162.2197 N.ar    1  UNL1       -0.2126
     29 C         142.1331  139.1845  163.3704 C.ar    1  UNL1        0.0572
     30 C         142.1679  137.8297  162.7274 C.ar    1  UNL1        0.1235
     31 N         141.0181  137.0313  163.2663 N.ar    1  UNL1       -0.1634
     32 N         140.2728  137.8925  164.2424 N.ar    1  UNL1       -0.2281
     33 C         139.0556  137.6368  165.0809 C.ar    1  UNL1        0.1004
     34 C         138.5276  138.7120  165.9838 C.ar    1  UNL1        0.0207
     35 C         139.2167  140.0428  166.0481 C.ar    1  UNL1        0.0031
     36 C         140.4339  140.2984  165.2096 C.ar    1  UNL1        0.0193
     37 C         140.9619  139.2233  164.3067 C.ar    1  UNL1        0.0858
@<TRIPOS>BOND
     1     1     2    1
     2     2     3   ar
     3     3     4   ar
     4     4     8    1
     5     8     9    1
     6     9    10    1
     7    10    11    1
     8    11    12   am
     9    12    13    2
    10    12    16    1
    11    16    17    1
    12    16    18    1
    13    11    14    1
    14    14    15    1
    15     4     5   ar
    16     5     6    1
    17     5     7   ar
    18     7    20    1
    19    20    22    1
    20    22    23   ar
    21    23    24   ar
    22    24    25   ar
    23    25    26    1
    24    25    27   ar
    25    27    29    1
    26    29    30   ar
    27    30    31   ar
    28    31    32   ar
    29    32    33   ar
    30    33    34   ar
    31    34    35   ar
    32    35    36   ar
    33    36    37   ar
    34    27    28   ar
    35     7     2   ar
    36    28    22   ar
    37    15     8    1
    38    37    29   ar
    39    37    32   ar
    40    18    19    1
    41    20    21    1
@<TRIPOS>MOLECULE
*****
 37 41 0 0 0
SMALL
GASTEIGER

@<TRIPOS>ATOM
      1 C         144.2776  142.6444  160.7327 C.3     1  UNL1        0.0553
      2 C         143.4103  142.9585  161.9156 C.ar    1  UNL1        0.0935
      3 N         143.3815  142.2055  163.2125 N.ar    1  UNL1       -0.1727
      4 N         142.3729  142.8625  164.1077 N.ar    1  UNL1       -0.2558
      5 C         141.7785  144.0216  163.3640 C.ar    1  UNL1        0.0704
      6 C         140.7275  144.9570  163.8838 C.3     1  UNL1        0.0531
      7 C         142.4196  144.0810  162.0092 C.ar    1  UNL1        0.0792
      8 C         142.0207  142.4354  165.5018 C.3     1  UNL1        0.1083
      9 C         143.0804  142.3894  166.5624 C.3     1  UNL1        0.0459
     10 C         142.7282  141.9622  167.9566 C.3     1  UNL1        0.0955
     11 N         141.3163  141.5812  168.2900 N.am    1  UNL1       -0.2775
     12 C         140.9641  141.1540  169.6842 C.2     1  UNL1        0.2525
     13 O         139.5521  140.7730  170.0177 O.2     1  UNL1       -0.2723
     14 C         140.2565  141.6272  167.2294 C.3     1  UNL1        0.0955
     15 C         140.6089  142.0543  165.8353 C.3     1  UNL1        0.0459
     16 C         142.0238  141.1080  170.7447 C.3     1  UNL1        0.1869
     17 C         143.0080  139.9764  170.7729 C.3     1  UNL1        0.0417
     18 O         142.0994  142.1936  171.7771 O.3     1  UNL1       -0.3758
     19 H         142.8351  142.0131  172.3829 H       1  UNL1        0.2110
     20 N         142.1223  145.0862  160.9363 N.pl3   1  UNL1       -0.2806
     21 H         142.5017  145.9929  160.9926 H       1  UNL1        0.1551
     22 C         141.2470  144.7100  159.7778 C.ar    1  UNL1        0.2208
     23 N         140.5088  143.4043  159.7884 N.ar    1  UNL1       -0.2111
     24 C         139.6335  143.0281  158.6299 C.ar    1  UNL1        0.1147
     25 C         139.4964  143.9577  157.4606 C.ar    1  UNL1        0.0946
     26 CL        138.6211  143.5815  156.3020 Cl      1  UNL1       -0.0790
     27 C         140.2346  145.2635  157.4500 C.ar    1  UNL1        0.0992
     28 N         141.1099  145.6396  158.6085 N.ar    1  UNL1       -0.2126
     29 C         140.0975  146.1930  156.2807 C.ar    1  UNL1        0.0572
     30 C         139.1096  147.3151  156.1575 C.ar    1  UNL1        0.1235
     31 N         139.3258  147.9792  154.8300 N.ar    1  UNL1       -0.1634
     32 N         140.4472  147.2676  154.1328 N.ar    1  UNL1       -0.2281
     33 C         141.0957  147.4823  152.7974 C.ar    1  UNL1        0.1004
     34 C         142.2211  146.5930  152.3586 C.ar    1  UNL1        0.0207
     35 C         142.6980  145.4891  153.2552 C.ar    1  UNL1        0.0031
     36 C         142.0496  145.2744  154.5906 C.ar    1  UNL1        0.0193
     37 C         140.9242  146.1637  155.0294 C.ar    1  UNL1        0.0858
@<TRIPOS>BOND
     1     1     2    1
     2     2     3   ar
     3     3     4   ar
     4     4     8    1
     5     8     9    1
     6     9    10    1
     7    10    11    1
     8    11    12   am
     9    12    13    2
    10    12    16    1
    11    16    17    1
    12    16    18    1
    13    11    14    1
    14    14    15    1
    15     4     5   ar
    16     5     6    1
    17     5     7   ar
    18     7    20    1
    19    20    22    1
    20    22    23   ar
    21    23    24   ar
    22    24    25   ar
    23    25    26    1
    24    25    27   ar
    25    27    29    1
    26    29    30   ar
    27    30    31   ar
    28    31    32   ar
    29    32    33   ar
    30    33    34   ar
    31    34    35   ar
    32    35    36   ar
    33    36    37   ar
    34    27    28   ar
    35     7     2   ar
    36    28    22   ar
    37    15     8    1
    38    37    29   ar
    39    37    32   ar
    40    18    19    1
    41    20    21    1
@<TRIPOS>MOLECULE
*****
 37 41 0 0 0
SMALL
GASTEIGER

@<TRIPOS>ATOM
      1 C         144.3916  142.6934  160.8644 C.3     1  UNL1        0.0553
      2 C         143.5110  143.0080  162.0372 C.ar    1  UNL1        0.0935
      3 N         143.4733  142.2604  163.3371 N.ar    1  UNL1       -0.1727
      4 N         142.4524  142.9158  164.2193 N.ar    1  UNL1       -0.2558
      5 C         141.8591  144.0684  163.4647 C.ar    1  UNL1        0.0704
      6 C         140.7980  145.0004  163.9699 C.3     1  UNL1        0.0531
      7 C         142.5134  144.1255  162.1161 C.ar    1  UNL1        0.0792
      8 C         142.0886  142.4928  165.6117 C.3     1  UNL1        0.1083
      9 C         143.1563  142.3519  166.6558 C.3     1  UNL1        0.0459
     10 C         142.7925  141.9289  168.0482 C.3     1  UNL1        0.0955
     11 N         141.3610  141.6468  168.3964 N.am    1  UNL1       -0.2775
     12 C         140.9973  141.2237  169.7889 C.2     1  UNL1        0.2525
     13 O         139.5658  140.9416  170.1371 O.2     1  UNL1       -0.2723
     14 C         140.2933  141.7876  167.3523 C.3     1  UNL1        0.0955
     15 C         140.6572  142.2106  165.9599 C.3     1  UNL1        0.0459
     16 C         142.0650  141.0829  170.8330 C.3     1  UNL1        0.1869
     17 C         142.9751  139.8907  170.8189 C.3     1  UNL1        0.0417
     18 O         142.2226  142.1343  171.8912 O.3     1  UNL1       -0.3758
     19 H         142.9527  141.8916  172.4818 H       1  UNL1        0.2110
     20 N         142.2214  145.1244  161.0359 N.pl3   1  UNL1       -0.2806
     21 H         142.6188  146.0242  161.0771 H       1  UNL1        0.1551
     22 C         141.3238  144.7526  159.8931 C.ar    1  UNL1        0.2208
     23 N         140.4743  143.5192  159.9772 N.ar    1  UNL1       -0.2111
     24 C         139.5767  143.1474  158.8344 C.ar    1  UNL1        0.1147
     25 C         139.5286  144.0090  157.6074 C.ar    1  UNL1        0.0946
     26 CL        138.6310  143.6372  156.4646 Cl      1  UNL1       -0.0790
     27 C         140.3781  145.2425  157.5234 C.ar    1  UNL1        0.0992
     28 N         141.2756  145.6142  158.6662 N.ar    1  UNL1       -0.2126
     29 C         140.3300  146.1041  156.2964 C.ar    1  UNL1        0.0572
     30 C         140.9630  145.7902  154.9733 C.ar    1  UNL1        0.1235
     31 N         140.6646  146.9230  154.0364 N.ar    1  UNL1       -0.1634
     32 N         139.8472  147.9369  154.7805 N.ar    1  UNL1       -0.2281
     33 C         139.2645  149.2557  154.3666 C.ar    1  UNL1        0.1004
     34 C         138.4750  150.0683  155.3496 C.ar    1  UNL1        0.0207
     35 C         138.2682  149.5622  156.7464 C.ar    1  UNL1        0.0031
     36 C         138.8509  148.2435  157.1603 C.ar    1  UNL1        0.0193
     37 C         139.6404  147.4308  156.1773 C.ar    1  UNL1        0.0858
@<TRIPOS>BOND
     1     1     2    1
     2     2     3   ar
     3     3     4   ar
     4     4     8    1
     5     8     9    1
     6     9    10    1
     7    10    11    1
     8    11    12   am
     9    12    13    2
    10    12    16    1
    11    16    17    1
    12    16    18    1
    13    11    14    1
    14    14    15    1
    15     4     5   ar
    16     5     6    1
    17     5     7   ar
    18     7    20    1
    19    20    22    1
    20    22    23   ar
    21    23    24   ar
    22    24    25   ar
    23    25    26    1
    24    25    27   ar
    25    27    29    1
    26    29    30   ar
    27    30    31   ar
    28    31    32   ar
    29    32    33   ar
    30    33    34   ar
    31    34    35   ar
    32    35    36   ar
    33    36    37   ar
    34    27    28   ar
    35     7     2   ar
    36    28    22   ar
    37    15     8    1
    38    37    29   ar
    39    37    32   ar
    40    18    19    1
    41    20    21    1
@<TRIPOS>MOLECULE
*****
 37 41 0 0 0
SMALL
GASTEIGER

@<TRIPOS>ATOM
      1 C         138.4050  137.7123  162.4460 C.3     1  UNL1        0.0553
      2 C         138.6211  138.8673  163.3784 C.ar    1  UNL1        0.0935
      3 N         139.3851  138.8278  164.6686 N.ar    1  UNL1       -0.1727
      4 N         139.3473  140.2008  165.2719 N.ar    1  UNL1       -0.2558
      5 C         138.5600  141.0887  164.3545 C.ar    1  UNL1        0.0704
      6 C         138.2721  142.5449  164.5695 C.3     1  UNL1        0.0531
      7 C         138.1112  140.2646  163.1842 C.ar    1  UNL1        0.0792
      8 C         139.9849  140.6133  166.5654 C.3     1  UNL1        0.1083
      9 C         141.0730  141.6458  166.5695 C.3     1  UNL1        0.0459
     10 C         141.7106  142.0583  167.8631 C.3     1  UNL1        0.0955
     11 N         141.2601  141.4383  169.1525 N.am    1  UNL1       -0.2775
     12 C         141.8978  141.8508  170.4461 C.2     1  UNL1        0.2525
     13 O         141.4473  141.2308  171.7356 O.2     1  UNL1       -0.2723
     14 C         140.1721  140.4058  169.1485 C.3     1  UNL1        0.0955
     15 C         139.5345  139.9933  167.8548 C.3     1  UNL1        0.0459
     16 C         142.9858  142.8834  170.4502 C.3     1  UNL1        0.1869
     17 C         144.3643  142.5221  169.9820 C.3     1  UNL1        0.0417
     18 O         142.6954  144.2771  170.9225 O.3     1  UNL1       -0.3758
     19 H         143.5010  144.8138  170.8609 H       1  UNL1        0.2110
     20 N         137.2956  140.7521  162.0235 N.pl3   1  UNL1       -0.2806
     21 H         136.3124  140.7354  162.0712 H       1  UNL1        0.1551
     22 C         137.9780  141.2649  160.7901 C.ar    1  UNL1        0.2208
     23 N         138.7837  142.5288  160.8493 N.ar    1  UNL1       -0.2111
     24 C         139.4661  143.0417  159.6159 C.ar    1  UNL1        0.1147
     25 C         139.3427  142.2907  158.3233 C.ar    1  UNL1        0.0946
     26 CL        140.0251  142.8036  157.0899 Cl      1  UNL1       -0.0790
     27 C         138.5370  141.0268  158.2641 C.ar    1  UNL1        0.0992
     28 N         137.8547  140.5140  159.4975 N.ar    1  UNL1       -0.2126
     29 C         138.4137  140.2758  156.9715 C.ar    1  UNL1        0.0572
     30 C         137.4829  140.6091  155.8435 C.ar    1  UNL1        0.1235
     31 N         137.6935  139.5990  154.7548 N.ar    1  UNL1       -0.1634
     32 N         138.7545  138.6413  155.2100 N.ar    1  UNL1       -0.2281
     33 C         139.3728  137.4425  154.5540 C.ar    1  UNL1        0.1004
     34 C         140.4363  136.6620  155.2679 C.ar    1  UNL1        0.0207
     35 C         140.8814  137.0803  156.6379 C.ar    1  UNL1        0.0031
     36 C         140.2631  138.2791  157.2940 C.ar    1  UNL1        0.0193
     37 C         139.1996  139.0596  156.5800 C.ar    1  UNL1        0.0858
@<TRIPOS>BOND
     1     1     2    1
     2     2     3   ar
     3     3     4   ar
     4     4     8    1
     5     8     9    1
     6     9    10    1
     7    10    11    1
     8    11    12   am
     9    12    13    2
    10    12    16    1
    11    16    17    1
    12    16    18    1
    13    11    14    1
    14    14    15    1
    15     4     5   ar
    16     5     6    1
    17     5     7   ar
    18     7    20    1
    19    20    22    1
    20    22    23   ar
    21    23    24   ar
    22    24    25   ar
    23    25    26    1
    24    25    27   ar
    25    27    29    1
    26    29    30   ar
    27    30    31   ar
    28    31    32   ar
    29    32    33   ar
    30    33    34   ar
    31    34    35   ar
    32    35    36   ar
    33    36    37   ar
    34    27    28   ar
    35     7     2   ar
    36    28    22   ar
    37    15     8    1
    38    37    29   ar
    39    37    32   ar
    40    18    19    1
    41    20    21    1
@<TRIPOS>MOLECULE
*****
 37 41 0 0 0
SMALL
GASTEIGER

@<TRIPOS>ATOM
      1 C         139.3060  137.9971  160.9603 C.3     1  UNL1        0.0553
      2 C         140.3139  138.3083  162.0266 C.ar    1  UNL1        0.0935
      3 N         140.0201  138.5238  163.4817 N.ar    1  UNL1       -0.1727
      4 N         141.3173  138.8075  164.1795 N.ar    1  UNL1       -0.2558
      5 C         142.4128  138.7673  163.1557 C.ar    1  UNL1        0.0704
      6 C         143.8721  138.9956  163.4166 C.3     1  UNL1        0.0531
      7 C         141.7927  138.4589  161.8251 C.ar    1  UNL1        0.0792
      8 C         141.4889  139.0829  165.6440 C.3     1  UNL1        0.1083
      9 C         140.3513  139.6533  166.4381 C.3     1  UNL1        0.0459
     10 C         140.5228  139.9288  167.9027 C.3     1  UNL1        0.0955
     11 N         141.8319  139.6338  168.5729 N.am    1  UNL1       -0.2775
     12 C         142.0035  139.9093  170.0375 C.2     1  UNL1        0.2525
     13 O         143.3125  139.6143  170.7078 O.2     1  UNL1       -0.2723
     14 C         142.9695  139.0634  167.7788 C.3     1  UNL1        0.0955
     15 C         142.7978  138.7880  166.3143 C.3     1  UNL1        0.0459
     16 C         140.8659  140.4797  170.8316 C.3     1  UNL1        0.1869
     17 C         140.7745  141.9603  171.0537 C.3     1  UNL1        0.0417
     18 O         139.8198  139.5694  171.4036 O.3     1  UNL1       -0.3758
     19 H         139.1617  140.0952  171.8846 H       1  UNL1        0.2110
     20 N         142.5231  138.3245  160.5219 N.pl3   1  UNL1       -0.2806
     21 H         142.8449  137.4421  160.2267 H       1  UNL1        0.1551
     22 C         142.7632  139.5344  159.6684 C.ar    1  UNL1        0.2208
     23 N         143.8337  139.5107  158.6179 N.ar    1  UNL1       -0.2111
     24 C         144.0738  140.7206  157.7644 C.ar    1  UNL1        0.1147
     25 C         143.2433  141.9542  157.9614 C.ar    1  UNL1        0.0946
     26 CL        143.4834  143.1641  157.1079 Cl      1  UNL1       -0.0790
     27 C         142.1728  141.9778  159.0119 C.ar    1  UNL1        0.0992
     28 N         141.9328  140.7679  159.8653 N.ar    1  UNL1       -0.2126
     29 C         141.3424  143.2114  159.2088 C.ar    1  UNL1        0.0572
     30 C         140.5260  143.9019  158.1568 C.ar    1  UNL1        0.1235
     31 N         139.8616  145.0882  158.7902 N.ar    1  UNL1       -0.1634
     32 N         140.2674  145.1309  160.2337 N.ar    1  UNL1       -0.2281
     33 C         139.9219  146.0762  161.3459 C.ar    1  UNL1        0.1004
     34 C         140.4915  145.8615  162.7168 C.ar    1  UNL1        0.0207
     35 C         141.4066  144.7015  162.9755 C.ar    1  UNL1        0.0031
     36 C         141.7522  143.7563  161.8633 C.ar    1  UNL1        0.0193
     37 C         141.1826  143.9710  160.4924 C.ar    1  UNL1        0.0858
@<TRIPOS>BOND
     1     1     2    1
     2     2     3   ar
     3     3     4   ar
     4     4     8    1
     5     8     9    1
     6     9    10    1
     7    10    11    1
     8    11    12   am
     9    12    13    2
    10    12    16    1
    11    16    17    1
    12    16    18    1
    13    11    14    1
    14    14    15    1
    15     4     5   ar
    16     5     6    1
    17     5     7   ar
    18     7    20    1
    19    20    22    1
    20    22    23   ar
    21    23    24   ar
    22    24    25   ar
    23    25    26    1
    24    25    27   ar
    25    27    29    1
    26    29    30   ar
    27    30    31   ar
    28    31    32   ar
    29    32    33   ar
    30    33    34   ar
    31    34    35   ar
    32    35    36   ar
    33    36    37   ar
    34    27    28   ar
    35     7     2   ar
    36    28    22   ar
    37    15     8    1
    38    37    29   ar
    39    37    32   ar
    40    18    19    1
    41    20    21    1
@<TRIPOS>MOLECULE
*****
 37 41 0 0 0
SMALL
GASTEIGER

@<TRIPOS>ATOM
      1 C         142.5845  145.3078  163.9523 C.3     1  UNL1        0.0553
      2 C         142.4874  144.6443  162.6105 C.ar    1  UNL1        0.0935
      3 N         141.4688  144.9432  161.5508 N.ar    1  UNL1       -0.1727
      4 N         141.7437  144.0491  160.3781 N.ar    1  UNL1       -0.2558
      5 C         142.9322  143.1976  160.7131 C.ar    1  UNL1        0.0704
      6 C         143.5523  142.1604  159.8246 C.3     1  UNL1        0.0531
      7 C         143.3919  143.5654  162.0928 C.ar    1  UNL1        0.0792
      8 C         140.9665  144.0128  159.0957 C.3     1  UNL1        0.1083
      9 C         139.7209  143.1829  158.9968 C.3     1  UNL1        0.0459
     10 C         138.9437  143.1466  157.7143 C.3     1  UNL1        0.0955
     11 N         139.4122  143.9403  156.5308 N.am    1  UNL1       -0.2775
     12 C         138.6350  143.9040  155.2483 C.2     1  UNL1        0.2525
     13 O         139.1034  144.6976  154.0648 O.2     1  UNL1       -0.2723
     14 C         140.6578  144.7701  156.6297 C.3     1  UNL1        0.0955
     15 C         141.4349  144.8064  157.9122 C.3     1  UNL1        0.0459
     16 C         137.3894  143.0741  155.1494 C.3     1  UNL1        0.1869
     17 C         137.4073  141.7825  154.3870 C.3     1  UNL1        0.0417
     18 O         136.1258  143.5358  155.8130 O.3     1  UNL1       -0.3758
     19 H         135.4214  142.8886  155.6529 H       1  UNL1        0.2110
     20 N         144.5523  142.9607  162.8261 N.pl3   1  UNL1       -0.2806
     21 H         145.4495  143.3568  162.7400 H       1  UNL1        0.1551
     22 C         144.3458  141.7524  163.6906 C.ar    1  UNL1        0.2208
     23 N         145.2081  140.5395  163.5026 N.ar    1  UNL1       -0.2111
     24 C         145.0016  139.3312  164.3671 C.ar    1  UNL1        0.1147
     25 C         143.9328  139.3358  165.4197 C.ar    1  UNL1        0.0946
     26 CL        143.7264  138.1275  166.2842 Cl      1  UNL1       -0.0790
     27 C         143.0705  140.5488  165.6077 C.ar    1  UNL1        0.0992
     28 N         143.2771  141.7570  164.7432 N.ar    1  UNL1       -0.2126
     29 C         142.0018  140.5534  166.6602 C.ar    1  UNL1        0.0572
     30 C         140.6713  139.8670  166.5687 C.ar    1  UNL1        0.1235
     31 N         139.9232  140.1347  167.8410 N.ar    1  UNL1       -0.1634
     32 N         140.7914  140.9865  168.7188 N.ar    1  UNL1       -0.2281
     33 C         140.5781  141.5599  170.0883 C.ar    1  UNL1        0.1004
     34 C         141.6495  142.3922  170.7281 C.ar    1  UNL1        0.0207
     35 C         142.9342  142.6510  169.9983 C.ar    1  UNL1        0.0031
     36 C         143.1475  142.0776  168.6288 C.ar    1  UNL1        0.0193
     37 C         142.0761  141.2453  167.9890 C.ar    1  UNL1        0.0858
@<TRIPOS>BOND
     1     1     2    1
     2     2     3   ar
     3     3     4   ar
     4     4     8    1
     5     8     9    1
     6     9    10    1
     7    10    11    1
     8    11    12   am
     9    12    13    2
    10    12    16    1
    11    16    17    1
    12    16    18    1
    13    11    14    1
    14    14    15    1
    15     4     5   ar
    16     5     6    1
    17     5     7   ar
    18     7    20    1
    19    20    22    1
    20    22    23   ar
    21    23    24   ar
    22    24    25   ar
    23    25    26    1
    24    25    27   ar
    25    27    29    1
    26    29    30   ar
    27    30    31   ar
    28    31    32   ar
    29    32    33   ar
    30    33    34   ar
    31    34    35   ar
    32    35    36   ar
    33    36    37   ar
    34    27    28   ar
    35     7     2   ar
    36    28    22   ar
    37    15     8    1
    38    37    29   ar
    39    37    32   ar
    40    18    19    1
    41    20    21    1
@<TRIPOS>MOLECULE
*****
 37 41 0 0 0
SMALL
GASTEIGER

@<TRIPOS>ATOM
      1 C         138.2604  137.5867  162.2625 C.3     1  UNL1        0.0553
      2 C         138.5095  138.7583  163.1654 C.ar    1  UNL1        0.0935
      3 N         139.2049  138.7155  164.4938 N.ar    1  UNL1       -0.1727
      4 N         139.2321  140.1093  165.0479 N.ar    1  UNL1       -0.2558
      5 C         138.5535  141.0133  164.0619 C.ar    1  UNL1        0.0704
      6 C         138.3561  142.4925  164.2128 C.3     1  UNL1        0.0531
      7 C         138.1069  140.1784  162.8984 C.ar    1  UNL1        0.0792
      8 C         139.8324  140.5257  166.3578 C.3     1  UNL1        0.1083
      9 C         140.9329  141.5446  166.3883 C.3     1  UNL1        0.0459
     10 C         141.5333  141.9611  167.6984 C.3     1  UNL1        0.0955
     11 N         141.0331  141.3587  168.9778 N.am    1  UNL1       -0.2775
     12 C         141.6335  141.7752  170.2879 C.2     1  UNL1        0.2525
     13 O         141.1334  141.1728  171.5674 O.2     1  UNL1       -0.2723
     14 C         139.9326  140.3398  168.9473 C.3     1  UNL1        0.0955
     15 C         139.3323  139.9234  167.6373 C.3     1  UNL1        0.0459
     16 C         142.7340  142.7940  170.3184 C.3     1  UNL1        0.1869
     17 C         144.1328  142.3983  169.9489 C.3     1  UNL1        0.0417
     18 O         142.4356  144.2086  170.7183 O.3     1  UNL1       -0.3758
     19 H         143.2510  144.7329  170.6852 H       1  UNL1        0.2110
     20 N         137.3846  140.6761  161.6817 N.pl3   1  UNL1       -0.2806
     21 H         136.4267  140.8973  161.7340 H       1  UNL1        0.1551
     22 C         138.1216  140.8368  160.3852 C.ar    1  UNL1        0.2208
     23 N         138.3578  139.6461  159.5042 N.ar    1  UNL1       -0.2111
     24 C         139.0949  139.8068  158.2077 C.ar    1  UNL1        0.1147
     25 C         139.5957  141.1583  157.7922 C.ar    1  UNL1        0.0946
     26 CL        140.3328  141.3190  156.4958 Cl      1  UNL1       -0.0790
     27 C         139.3595  142.3491  158.6734 C.ar    1  UNL1        0.0992
     28 N         138.6225  142.1883  159.9698 N.ar    1  UNL1       -0.2126
     29 C         139.8604  143.7006  158.2579 C.ar    1  UNL1        0.0572
     30 C         140.9618  144.4744  158.9198 C.ar    1  UNL1        0.1235
     31 N         141.1299  145.7676  158.1785 N.ar    1  UNL1       -0.1634
     32 N         140.1323  145.7930  157.0586 N.ar    1  UNL1       -0.2281
     33 C         139.8371  146.8143  156.0004 C.ar    1  UNL1        0.1004
     34 C         138.7572  146.5582  154.9914 C.ar    1  UNL1        0.0207
     35 C         137.9727  145.2807  155.0404 C.ar    1  UNL1        0.0031
     36 C         138.2679  144.2593  156.0985 C.ar    1  UNL1        0.0193
     37 C         139.3478  144.5155  157.1076 C.ar    1  UNL1        0.0858
@<TRIPOS>BOND
     1     1     2    1
     2     2     3   ar
     3     3     4   ar
     4     4     8    1
     5     8     9    1
     6     9    10    1
     7    10    11    1
     8    11    12   am
     9    12    13    2
    10    12    16    1
    11    16    17    1
    12    16    18    1
    13    11    14    1
    14    14    15    1
    15     4     5   ar
    16     5     6    1
    17     5     7   ar
    18     7    20    1
    19    20    22    1
    20    22    23   ar
    21    23    24   ar
    22    24    25   ar
    23    25    26    1
    24    25    27   ar
    25    27    29    1
    26    29    30   ar
    27    30    31   ar
    28    31    32   ar
    29    32    33   ar
    30    33    34   ar
    31    34    35   ar
    32    35    36   ar
    33    36    37   ar
    34    27    28   ar
    35     7     2   ar
    36    28    22   ar
    37    15     8    1
    38    37    29   ar
    39    37    32   ar
    40    18    19    1
    41    20    21    1
