@<TRIPOS>MOLECULE
*****
 44 50 0 0 0
SMALL
GASTEIGER

@<TRIPOS>ATOM
      1 C         144.3921  139.7050  163.5016 C.3     1  UNL1        0.0700
      2 C         143.4797  139.1272  162.4605 C.3     1  UNL1        0.0193
      3 C         142.2624  138.3552  162.8752 C.3     1  UNL1        0.0286
      4 C         141.9573  138.1610  164.3310 C.3     1  UNL1        0.0932
      5 C         142.8697  138.7387  165.3720 C.3     1  UNL1        0.0286
      6 C         144.0871  139.5108  164.9573 C.3     1  UNL1        0.0193
      7 O         142.6361  138.5914  164.1522 O.3     1  UNL1       -0.3572
      8 C         143.7369  139.2895  163.7773 C.3     1  UNL1        0.1562
      9 N         145.6095  140.4770  163.0869 N.3     1  UNL1       -0.2926
     10 H         146.4090  140.0283  163.5339 H       1  UNL1        0.1236
     11 C         145.7085  141.9423  163.3924 C.3     1  UNL1        0.1152
     12 O         140.4720  145.4501  158.8072 O.2     1  UNL1       -0.2707
     13 C         141.0151  145.1633  160.1757 C.2     1  UNL1        0.2718
     14 C         140.3558  145.7588  161.3842 C.3     1  UNL1        0.2898
     15 O         140.8989  145.4719  162.7527 O.3     1  UNL1       -0.4628
     16 C         142.1013  144.5895  162.9127 C.ar    1  UNL1        0.1708
     17 C         142.6444  144.3027  164.2811 C.ar    1  UNL1        0.0411
     18 C         143.8467  143.4203  164.4411 C.ar    1  UNL1        0.0193
     19 C         144.5061  142.8247  163.2325 C.ar    1  UNL1        0.0765
     20 N         143.9630  143.1115  161.8640 N.ar    1  UNL1       -0.2304
     21 C         142.7606  143.9940  161.7041 C.ar    1  UNL1        0.1682
     22 N         142.2175  144.2809  160.3356 N.am    1  UNL1       -0.2639
     23 H         142.6502  143.8900  159.5424 H       1  UNL1        0.1565
     24 C         140.7399  137.3890  164.7456 C.3     1  UNL1        0.0320
     25 C         139.4780  138.1153  165.1059 C.3     1  UNL1        0.0327
     26 C         138.9538  139.1979  164.2099 C.ar    1  UNL1        0.0261
     27 C         138.2965  138.8423  162.9092 C.ar    1  UNL1        0.1566
     28 F         138.1635  137.4040  162.5047 F       1  UNL1       -0.2028
     29 C         137.7723  139.9250  162.0131 C.ar    1  UNL1        0.1281
     30 N         137.9053  141.3633  162.4176 N.ar    1  UNL1       -0.2400
     31 C         138.5626  141.7189  163.7182 C.ar    1  UNL1        0.0990
     32 C         138.6956  143.1572  164.1227 C.ar    1  UNL1        0.0254
     33 C         139.3529  143.5128  165.4233 C.ar    1  UNL1        0.0593
     34 C         139.8771  142.4302  166.3194 C.ar    1  UNL1        0.2249
     35 N         139.7440  140.9919  165.9149 N.ar    1  UNL1       -0.2104
     36 C         139.0868  140.6362  164.6143 C.ar    1  UNL1        0.1002
     37 O         140.5343  142.7858  167.6200 O.3     1  UNL1       -0.4601
     38 C         140.9169  141.7050  168.5872 C.3     1  UNL1        0.2093
     39 C         142.1471  141.8559  169.4323 C.3     1  UNL1        0.0674
     40 C         143.5760  142.1146  169.8080 C.3     1  UNL1        0.0062
     41 C         143.1468  142.2187  168.3745 C.3     1  UNL1        0.0062
     42 C         141.5745  141.5454  170.7835 C.3     1  UNL1        0.1406
     43 O         142.3637  140.7280  171.7627 O.3     1  UNL1       -0.3819
     44 H         142.4695  139.8266  171.4202 H       1  UNL1        0.2104
@<TRIPOS>BOND
     1    12    13    2
     2    13    14    1
     3    14    15    1
     4    15    16    1
     5    16    17   ar
     6    17    18   ar
     7    18    19   ar
     8    19    11    1
     9    11     9    1
    10     9     1    1
    11     1     2    1
    12     2     3    1
    13     3     4    1
    14     4    24    1
    15    24    25    1
    16    25    26    1
    17    26    27   ar
    18    27    28    1
    19    27    29   ar
    20    29    30   ar
    21    30    31   ar
    22    31    32   ar
    23    32    33   ar
    24    33    34   ar
    25    34    37    1
    26    37    38    1
    27    38    39    1
    28    39    42    1
    29    42    43    1
    30    39    40    1
    31    40    41    1
    32    34    35   ar
    33    35    36   ar
    34     4     5    1
    35     5     6    1
    36     4     7    1
    37     7     8    1
    38    19    20   ar
    39    20    21   ar
    40    21    22    1
    41    22    13   am
    42    21    16   ar
    43     6     1    1
    44     8     1    1
    45    36    26   ar
    46    36    31   ar
    47    41    39    1
    48     9    10    1
    49    43    44    1
    50    22    23    1
@<TRIPOS>MOLECULE
*****
 44 50 0 0 0
SMALL
GASTEIGER

@<TRIPOS>ATOM
      1 C         142.2469  138.0463  162.8353 C.3     1  UNL1        0.0700
      2 C         143.0742  138.7366  161.7917 C.3     1  UNL1        0.0193
      3 C         144.2243  139.6079  162.2016 C.3     1  UNL1        0.0286
      4 C         144.5472  139.7888  163.6553 C.3     1  UNL1        0.0932
      5 C         143.7200  139.0985  164.6989 C.3     1  UNL1        0.0286
      6 C         142.5698  138.2273  164.2889 C.3     1  UNL1        0.0193
      7 O         143.9073  139.3016  163.4791 O.3     1  UNL1       -0.3572
      8 C         142.8673  138.5138  163.1084 C.3     1  UNL1        0.1562
      9 N         141.0968  137.1751  162.4253 N.3     1  UNL1       -0.2926
     10 H         141.4328  136.5814  161.6670 H       1  UNL1        0.1236
     11 C         139.8159  137.7968  161.9534 C.3     1  UNL1        0.1152
     12 O         138.3338  145.4474  162.1021 O.2     1  UNL1       -0.2707
     13 C         138.2734  144.0995  162.7575 C.2     1  UNL1        0.2718
     14 C         137.6585  143.9540  164.1179 C.3     1  UNL1        0.2898
     15 O         137.5981  142.6061  164.7734 O.3     1  UNL1       -0.4628
     16 C         138.1526  141.4038  164.0684 C.ar    1  UNL1        0.1708
     17 C         138.0922  140.0559  164.7238 C.ar    1  UNL1        0.0411
     18 C         138.6466  138.8536  164.0188 C.ar    1  UNL1        0.0193
     19 C         139.2614  138.9991  162.6584 C.ar    1  UNL1        0.0765
     20 N         139.3218  140.3470  162.0029 N.ar    1  UNL1       -0.2304
     21 C         138.7674  141.5494  162.7080 C.ar    1  UNL1        0.1682
     22 N         138.8278  142.8972  162.0526 N.am    1  UNL1       -0.2639
     23 H         139.2313  142.9928  161.1597 H       1  UNL1        0.1565
     24 C         145.6974  140.6601  164.0652 C.3     1  UNL1        0.0320
     25 C         145.4798  142.1242  164.3082 C.3     1  UNL1        0.0327
     26 C         144.1463  142.7436  164.0118 C.ar    1  UNL1        0.0261
     27 C         143.8945  143.3787  162.6764 C.ar    1  UNL1        0.1566
     28 F         144.9763  143.3943  161.6374 F       1  UNL1       -0.2028
     29 C         142.5609  143.9981  162.3800 C.ar    1  UNL1        0.1281
     30 N         141.4791  143.9825  163.4189 N.ar    1  UNL1       -0.2400
     31 C         141.7308  143.3475  164.7543 C.ar    1  UNL1        0.0990
     32 C         140.6490  143.3318  165.7933 C.ar    1  UNL1        0.0254
     33 C         140.9008  142.6967  167.1287 C.ar    1  UNL1        0.0593
     34 C         142.2344  142.0773  167.4251 C.ar    1  UNL1        0.2249
     35 N         143.3162  142.0929  166.3862 N.ar    1  UNL1       -0.2104
     36 C         143.0645  142.7280  165.0508 C.ar    1  UNL1        0.1002
     37 O         142.4861  141.4422  168.7605 O.3     1  UNL1       -0.4601
     38 C         141.7187  140.2188  169.1658 C.3     1  UNL1        0.2093
     39 C         140.3793  140.3583  169.8266 C.3     1  UNL1        0.0674
     40 C         138.8899  140.3707  170.0048 C.3     1  UNL1        0.0062
     41 C         139.4825  140.0410  168.6668 C.3     1  UNL1        0.0062
     42 C         140.8110  140.7239  171.2158 C.3     1  UNL1        0.1406
     43 O         142.1577  141.3440  171.4439 O.3     1  UNL1       -0.3819
     44 H         142.8507  140.7026  171.2221 H       1  UNL1        0.2104
@<TRIPOS>BOND
     1    12    13    2
     2    13    14    1
     3    14    15    1
     4    15    16    1
     5    16    17   ar
     6    17    18   ar
     7    18    19   ar
     8    19    11    1
     9    11     9    1
    10     9     1    1
    11     1     2    1
    12     2     3    1
    13     3     4    1
    14     4    24    1
    15    24    25    1
    16    25    26    1
    17    26    27   ar
    18    27    28    1
    19    27    29   ar
    20    29    30   ar
    21    30    31   ar
    22    31    32   ar
    23    32    33   ar
    24    33    34   ar
    25    34    37    1
    26    37    38    1
    27    38    39    1
    28    39    42    1
    29    42    43    1
    30    39    40    1
    31    40    41    1
    32    34    35   ar
    33    35    36   ar
    34     4     5    1
    35     5     6    1
    36     4     7    1
    37     7     8    1
    38    19    20   ar
    39    20    21   ar
    40    21    22    1
    41    22    13   am
    42    21    16   ar
    43     6     1    1
    44     8     1    1
    45    36    26   ar
    46    36    31   ar
    47    41    39    1
    48     9    10    1
    49    43    44    1
    50    22    23    1
@<TRIPOS>MOLECULE
*****
 44 50 0 0 0
SMALL
GASTEIGER

@<TRIPOS>ATOM
      1 C         137.8987  140.0751  161.9786 C.3     1  UNL1        0.0700
      2 C         138.0899  141.1469  160.9467 C.3     1  UNL1        0.0193
      3 C         138.0433  142.5914  161.3481 C.3     1  UNL1        0.0286
      4 C         137.8056  142.9642  162.7815 C.3     1  UNL1        0.0932
      5 C         137.6144  141.8924  163.8134 C.3     1  UNL1        0.0286
      6 C         137.6610  140.4479  163.4119 C.3     1  UNL1        0.0193
      7 O         137.8228  142.1592  162.6094 O.3     1  UNL1       -0.3572
      8 C         137.8649  140.8530  162.2465 C.3     1  UNL1        0.1562
      9 N         137.9453  138.6306  161.5771 N.3     1  UNL1       -0.2926
     10 H         137.5582  138.0962  162.3549 H       1  UNL1        0.1236
     11 C         139.2559  137.9924  161.2231 C.3     1  UNL1        0.1152
     12 O         145.9631  141.6544  162.7572 O.2     1  UNL1       -0.2707
     13 C         144.9236  140.6383  163.1274 C.2     1  UNL1        0.2718
     14 C         145.0803  139.8268  164.3791 C.3     1  UNL1        0.2898
     15 O         144.0408  138.8107  164.7493 O.3     1  UNL1       -0.4628
     16 C         142.8446  138.6061  163.8678 C.ar    1  UNL1        0.1708
     17 C         141.8051  137.5901  164.2379 C.ar    1  UNL1        0.0411
     18 C         140.6089  137.3855  163.3564 C.ar    1  UNL1        0.0193
     19 C         140.4521  138.1970  162.1046 C.ar    1  UNL1        0.0765
     20 N         141.4916  139.2131  161.7344 N.ar    1  UNL1       -0.2304
     21 C         142.6879  139.4177  162.6161 C.ar    1  UNL1        0.1682
     22 N         143.7273  140.4337  162.2459 N.am    1  UNL1       -0.2639
     23 H         143.6245  140.9664  161.4243 H       1  UNL1        0.1565
     24 C         137.7590  144.4087  163.1830 C.3     1  UNL1        0.0320
     25 C         138.8882  145.0053  163.9697 C.3     1  UNL1        0.0327
     26 C         140.2969  144.5549  163.7192 C.ar    1  UNL1        0.0261
     27 C         140.9942  144.9442  162.4494 C.ar    1  UNL1        0.1566
     28 F         140.2827  145.7837  161.4301 F       1  UNL1       -0.2028
     29 C         142.4029  144.4938  162.1989 C.ar    1  UNL1        0.1281
     30 N         143.1143  143.6542  163.2182 N.ar    1  UNL1       -0.2400
     31 C         142.4171  143.2650  164.4880 C.ar    1  UNL1        0.0990
     32 C         143.1286  142.4255  165.5073 C.ar    1  UNL1        0.0254
     33 C         142.4313  142.0363  166.7771 C.ar    1  UNL1        0.0593
     34 C         141.0226  142.4866  167.0276 C.ar    1  UNL1        0.2249
     35 N         140.3111  143.3262  166.0083 N.ar    1  UNL1       -0.2104
     36 C         141.0084  143.7154  164.7385 C.ar    1  UNL1        0.1002
     37 O         140.3254  142.0974  168.2973 O.3     1  UNL1       -0.4601
     38 C         141.1233  141.8246  169.5378 C.3     1  UNL1        0.2093
     39 C         141.3769  140.4109  169.9707 C.3     1  UNL1        0.0674
     40 C         142.1070  139.1282  170.2387 C.3     1  UNL1        0.0062
     41 C         142.8370  140.2972  169.6465 C.3     1  UNL1        0.0062
     42 C         140.0048  140.0337  170.4453 C.3     1  UNL1        0.1406
     43 O         138.9066  139.7959  169.4516 O.3     1  UNL1       -0.3819
     44 H         138.6980  140.6261  168.9953 H       1  UNL1        0.2104
@<TRIPOS>BOND
     1    12    13    2
     2    13    14    1
     3    14    15    1
     4    15    16    1
     5    16    17   ar
     6    17    18   ar
     7    18    19   ar
     8    19    11    1
     9    11     9    1
    10     9     1    1
    11     1     2    1
    12     2     3    1
    13     3     4    1
    14     4    24    1
    15    24    25    1
    16    25    26    1
    17    26    27   ar
    18    27    28    1
    19    27    29   ar
    20    29    30   ar
    21    30    31   ar
    22    31    32   ar
    23    32    33   ar
    24    33    34   ar
    25    34    37    1
    26    37    38    1
    27    38    39    1
    28    39    42    1
    29    42    43    1
    30    39    40    1
    31    40    41    1
    32    34    35   ar
    33    35    36   ar
    34     4     5    1
    35     5     6    1
    36     4     7    1
    37     7     8    1
    38    19    20   ar
    39    20    21   ar
    40    21    22    1
    41    22    13   am
    42    21    16   ar
    43     6     1    1
    44     8     1    1
    45    36    26   ar
    46    36    31   ar
    47    41    39    1
    48     9    10    1
    49    43    44    1
    50    22    23    1
@<TRIPOS>MOLECULE
*****
 44 50 0 0 0
SMALL
GASTEIGER

@<TRIPOS>ATOM
      1 C         137.9319  140.0445  161.9876 C.3     1  UNL1        0.0700
      2 C         138.1086  141.1696  161.0113 C.3     1  UNL1        0.0193
      3 C         138.0645  142.5908  161.4888 C.3     1  UNL1        0.0286
      4 C         137.8436  142.8871  162.9426 C.3     1  UNL1        0.0932
      5 C         137.6669  141.7621  163.9189 C.3     1  UNL1        0.0286
      6 C         137.7111  140.3408  163.4413 C.3     1  UNL1        0.0193
      7 O         137.8601  142.0923  162.7282 O.3     1  UNL1       -0.3572
      8 C         137.9000  140.8072  162.2965 C.3     1  UNL1        0.1562
      9 N         137.9761  138.6233  161.5101 N.3     1  UNL1       -0.2926
     10 H         137.7303  138.0369  162.3077 H       1  UNL1        0.1236
     11 C         139.2440  138.0640  160.9360 C.3     1  UNL1        0.1152
     12 O         143.8549  138.0608  167.2200 O.2     1  UNL1       -0.2707
     13 C         143.6355  138.3756  165.7699 C.2     1  UNL1        0.2718
     14 C         144.7337  139.0041  164.9644 C.3     1  UNL1        0.2898
     15 O         144.5144  139.3189  163.5143 O.3     1  UNL1       -0.4628
     16 C         143.1968  139.0052  162.8697 C.ar    1  UNL1        0.1708
     17 C         142.9774  139.3200  161.4196 C.ar    1  UNL1        0.0411
     18 C         141.6599  139.0063  160.7750 C.ar    1  UNL1        0.0193
     19 C         140.5616  138.3777  161.5806 C.ar    1  UNL1        0.0765
     20 N         140.7809  138.0629  163.0307 N.ar    1  UNL1       -0.2304
     21 C         142.0986  138.3767  163.6752 C.ar    1  UNL1        0.1682
     22 N         142.3180  138.0619  165.1253 N.am    1  UNL1       -0.2639
     23 H         141.5972  137.6494  165.6540 H       1  UNL1        0.1565
     24 C         137.7995  144.3084  163.4201 C.3     1  UNL1        0.0320
     25 C         138.8142  144.7989  164.4099 C.3     1  UNL1        0.0327
     26 C         140.2692  144.4978  164.2041 C.ar    1  UNL1        0.0261
     27 C         141.0388  145.2126  163.1332 C.ar    1  UNL1        0.1566
     28 F         140.3535  146.2285  162.2681 F       1  UNL1       -0.2028
     29 C         142.4938  144.9115  162.9273 C.ar    1  UNL1        0.1281
     30 N         143.1791  143.8956  163.7924 N.ar    1  UNL1       -0.2400
     31 C         142.4095  143.1809  164.8632 C.ar    1  UNL1        0.0990
     32 C         143.0949  142.1650  165.7283 C.ar    1  UNL1        0.0254
     33 C         142.3252  141.4502  166.7992 C.ar    1  UNL1        0.0593
     34 C         140.8703  141.7513  167.0050 C.ar    1  UNL1        0.2249
     35 N         140.1849  142.7672  166.1400 N.ar    1  UNL1       -0.2104
     36 C         140.9545  143.4819  165.0691 C.ar    1  UNL1        0.1002
     37 O         140.1007  141.0366  168.0759 O.3     1  UNL1       -0.4601
     38 C         140.0452  141.6022  169.4640 C.3     1  UNL1        0.2093
     39 C         141.2602  142.2500  170.0591 C.3     1  UNL1        0.0674
     40 C         142.2136  143.3211  170.4996 C.3     1  UNL1        0.0062
     41 C         140.9288  143.6934  169.8207 C.3     1  UNL1        0.0062
     42 C         142.0135  141.0316  170.5041 C.3     1  UNL1        0.1406
     43 O         142.1257  140.7113  171.9653 O.3     1  UNL1       -0.3819
     44 H         142.6505  141.3971  172.4072 H       1  UNL1        0.2104
@<TRIPOS>BOND
     1    12    13    2
     2    13    14    1
     3    14    15    1
     4    15    16    1
     5    16    17   ar
     6    17    18   ar
     7    18    19   ar
     8    19    11    1
     9    11     9    1
    10     9     1    1
    11     1     2    1
    12     2     3    1
    13     3     4    1
    14     4    24    1
    15    24    25    1
    16    25    26    1
    17    26    27   ar
    18    27    28    1
    19    27    29   ar
    20    29    30   ar
    21    30    31   ar
    22    31    32   ar
    23    32    33   ar
    24    33    34   ar
    25    34    37    1
    26    37    38    1
    27    38    39    1
    28    39    42    1
    29    42    43    1
    30    39    40    1
    31    40    41    1
    32    34    35   ar
    33    35    36   ar
    34     4     5    1
    35     5     6    1
    36     4     7    1
    37     7     8    1
    38    19    20   ar
    39    20    21   ar
    40    21    22    1
    41    22    13   am
    42    21    16   ar
    43     6     1    1
    44     8     1    1
    45    36    26   ar
    46    36    31   ar
    47    41    39    1
    48     9    10    1
    49    43    44    1
    50    22    23    1
@<TRIPOS>MOLECULE
*****
 44 50 0 0 0
SMALL
GASTEIGER

@<TRIPOS>ATOM
      1 C         139.4076  137.5792  164.0746 C.3     1  UNL1        0.0700
      2 C         138.6068  138.2018  162.9697 C.3     1  UNL1        0.0193
      3 C         139.2662  138.5447  161.6668 C.3     1  UNL1        0.0286
      4 C         140.7265  138.2648  161.4688 C.3     1  UNL1        0.0932
      5 C         141.5274  137.6422  162.5737 C.3     1  UNL1        0.0286
      6 C         140.8679  137.2993  163.8767 C.3     1  UNL1        0.0193
      7 O         140.4091  138.0595  162.2002 O.3     1  UNL1       -0.3572
      8 C         139.8129  137.7495  163.3784 C.3     1  UNL1        0.1562
      9 N         138.7482  137.2363  165.3775 N.3     1  UNL1       -0.2926
     10 H         138.0413  136.5301  165.1729 H       1  UNL1        0.1236
     11 C         138.0707  138.3074  166.1799 C.3     1  UNL1        0.1152
     12 O         140.4169  142.3133  172.4408 O.2     1  UNL1       -0.2707
     13 C         140.4437  142.0873  170.9582 C.2     1  UNL1        0.2718
     14 C         141.2793  142.9706  170.0799 C.3     1  UNL1        0.2898
     15 O         141.3061  142.7446  168.5972 O.3     1  UNL1       -0.4628
     16 C         140.4973  141.6353  167.9929 C.ar    1  UNL1        0.1708
     17 C         140.5241  141.4093  166.5103 C.ar    1  UNL1        0.0411
     18 C         139.7152  140.3001  165.9059 C.ar    1  UNL1        0.0193
     19 C         138.8795  139.4167  166.7843 C.ar    1  UNL1        0.0765
     20 N         138.8528  139.6427  168.2669 N.ar    1  UNL1       -0.2304
     21 C         139.6617  140.7520  168.8712 C.ar    1  UNL1        0.1682
     22 N         139.6349  140.9780  170.3538 N.am    1  UNL1       -0.2639
     23 H         139.0864  140.3983  170.9303 H       1  UNL1        0.1565
     24 C         141.3859  138.6077  160.1659 C.3     1  UNL1        0.0320
     25 C         141.9997  139.9622  159.9694 C.3     1  UNL1        0.0327
     26 C         142.8175  140.5809  161.0640 C.ar    1  UNL1        0.0261
     27 C         144.1004  139.9358  161.4980 C.ar    1  UNL1        0.1566
     28 F         144.5653  138.6720  160.8372 F       1  UNL1       -0.2028
     29 C         144.9182  140.5545  162.5926 C.ar    1  UNL1        0.1281
     30 N         144.4533  141.8184  163.2534 N.ar    1  UNL1       -0.2400
     31 C         143.1705  142.4635  162.8195 C.ar    1  UNL1        0.0990
     32 C         142.7056  143.7273  163.4802 C.ar    1  UNL1        0.0254
     33 C         141.4227  144.3724  163.0463 C.ar    1  UNL1        0.0593
     34 C         140.6049  143.7537  161.9517 C.ar    1  UNL1        0.2249
     35 N         141.0698  142.4898  161.2909 N.ar    1  UNL1       -0.2104
     36 C         142.3526  141.8447  161.7248 C.ar    1  UNL1        0.1002
     37 O         139.3221  144.3987  161.5178 O.3     1  UNL1       -0.4601
     38 C         138.2411  144.6686  162.5221 C.3     1  UNL1        0.2093
     39 C         137.8447  143.6039  163.5017 C.3     1  UNL1        0.0674
     40 C         137.5788  142.9212  164.8107 C.3     1  UNL1        0.0062
     41 C         138.0827  144.3340  164.7902 C.3     1  UNL1        0.0062
     42 C         137.4692  142.5041  162.5533 C.3     1  UNL1        0.1406
     43 O         136.7090  141.3109  163.0518 O.3     1  UNL1       -0.3819
     44 H         137.2632  140.8098  163.6703 H       1  UNL1        0.2104
@<TRIPOS>BOND
     1    12    13    2
     2    13    14    1
     3    14    15    1
     4    15    16    1
     5    16    17   ar
     6    17    18   ar
     7    18    19   ar
     8    19    11    1
     9    11     9    1
    10     9     1    1
    11     1     2    1
    12     2     3    1
    13     3     4    1
    14     4    24    1
    15    24    25    1
    16    25    26    1
    17    26    27   ar
    18    27    28    1
    19    27    29   ar
    20    29    30   ar
    21    30    31   ar
    22    31    32   ar
    23    32    33   ar
    24    33    34   ar
    25    34    37    1
    26    37    38    1
    27    38    39    1
    28    39    42    1
    29    42    43    1
    30    39    40    1
    31    40    41    1
    32    34    35   ar
    33    35    36   ar
    34     4     5    1
    35     5     6    1
    36     4     7    1
    37     7     8    1
    38    19    20   ar
    39    20    21   ar
    40    21    22    1
    41    22    13   am
    42    21    16   ar
    43     6     1    1
    44     8     1    1
    45    36    26   ar
    46    36    31   ar
    47    41    39    1
    48     9    10    1
    49    43    44    1
    50    22    23    1
@<TRIPOS>MOLECULE
*****
 44 50 0 0 0
SMALL
GASTEIGER

@<TRIPOS>ATOM
      1 C         142.0716  144.6409  163.1352 C.3     1  UNL1        0.0700
      2 C         142.0743  143.9864  164.4849 C.3     1  UNL1        0.0193
      3 C         142.8639  142.7308  164.7080 C.3     1  UNL1        0.0286
      4 C         143.6509  142.1295  163.5814 C.3     1  UNL1        0.0932
      5 C         143.6481  142.7840  162.2316 C.3     1  UNL1        0.0286
      6 C         142.8584  144.0397  162.0086 C.3     1  UNL1        0.0193
      7 O         143.2335  142.8185  163.4110 O.3     1  UNL1       -0.3572
      8 C         142.5195  143.9539  163.2093 C.3     1  UNL1        0.1562
      9 N         141.2819  145.8965  162.9121 N.3     1  UNL1       -0.2926
     10 H         141.3052  146.4185  163.7881 H       1  UNL1        0.1236
     11 C         139.8433  145.8137  162.4953 C.3     1  UNL1        0.1152
     12 O         138.2353  139.7024  157.9329 O.2     1  UNL1       -0.2707
     13 C         138.1237  140.4011  159.2555 C.2     1  UNL1        0.2718
     14 C         137.3645  139.7614  160.3799 C.3     1  UNL1        0.2898
     15 O         137.2529  140.4602  161.7026 O.3     1  UNL1       -0.4628
     16 C         137.9005  141.7985  161.9008 C.ar    1  UNL1        0.1708
     17 C         137.7889  142.4972  163.2234 C.ar    1  UNL1        0.0411
     18 C         138.4364  143.8356  163.4216 C.ar    1  UNL1        0.0193
     19 C         139.1957  144.4753  162.2971 C.ar    1  UNL1        0.0765
     20 N         139.3073  143.7766  160.9745 N.ar    1  UNL1       -0.2304
     21 C         138.6597  142.4382  160.7763 C.ar    1  UNL1        0.1682
     22 N         138.7713  141.7395  159.4537 N.am    1  UNL1       -0.2639
     23 H         139.2696  142.1593  158.7157 H       1  UNL1        0.1565
     24 C         144.4405  140.8739  163.8045 C.3     1  UNL1        0.0320
     25 C         143.7644  139.6488  164.3448 C.3     1  UNL1        0.0327
     26 C         142.6595  138.9974  163.5672 C.ar    1  UNL1        0.0261
     27 C         142.9308  138.4409  162.2009 C.ar    1  UNL1        0.1566
     28 F         144.3072  138.5358  161.6122 F       1  UNL1       -0.2028
     29 C         141.8259  137.7895  161.4233 C.ar    1  UNL1        0.1281
     30 N         140.4495  137.6945  162.0120 N.ar    1  UNL1       -0.2400
     31 C         140.1781  138.2510  163.3782 C.ar    1  UNL1        0.0990
     32 C         138.8017  138.1560  163.9669 C.ar    1  UNL1        0.0254
     33 C         138.5303  138.7125  165.3332 C.ar    1  UNL1        0.0593
     34 C         139.6353  139.3639  166.1108 C.ar    1  UNL1        0.2249
     35 N         141.0117  139.4589  165.5221 N.ar    1  UNL1       -0.2104
     36 C         141.2831  138.9024  164.1559 C.ar    1  UNL1        0.1002
     37 O         139.3638  139.9204  167.4770 O.3     1  UNL1       -0.4601
     38 C         140.4495  140.6364  168.2245 C.3     1  UNL1        0.2093
     39 C         141.1660  139.9481  169.3483 C.3     1  UNL1        0.0674
     40 C         142.2451  139.2261  170.0995 C.3     1  UNL1        0.0062
     41 C         142.4587  139.6120  168.6658 C.3     1  UNL1        0.0062
     42 C         140.1220  140.0452  170.4211 C.3     1  UNL1        0.1406
     43 O         138.9797  141.0057  170.2711 O.3     1  UNL1       -0.3819
     44 H         139.3171  141.9149  170.2902 H       1  UNL1        0.2104
@<TRIPOS>BOND
     1    12    13    2
     2    13    14    1
     3    14    15    1
     4    15    16    1
     5    16    17   ar
     6    17    18   ar
     7    18    19   ar
     8    19    11    1
     9    11     9    1
    10     9     1    1
    11     1     2    1
    12     2     3    1
    13     3     4    1
    14     4    24    1
    15    24    25    1
    16    25    26    1
    17    26    27   ar
    18    27    28    1
    19    27    29   ar
    20    29    30   ar
    21    30    31   ar
    22    31    32   ar
    23    32    33   ar
    24    33    34   ar
    25    34    37    1
    26    37    38    1
    27    38    39    1
    28    39    42    1
    29    42    43    1
    30    39    40    1
    31    40    41    1
    32    34    35   ar
    33    35    36   ar
    34     4     5    1
    35     5     6    1
    36     4     7    1
    37     7     8    1
    38    19    20   ar
    39    20    21   ar
    40    21    22    1
    41    22    13   am
    42    21    16   ar
    43     6     1    1
    44     8     1    1
    45    36    26   ar
    46    36    31   ar
    47    41    39    1
    48     9    10    1
    49    43    44    1
    50    22    23    1
@<TRIPOS>MOLECULE
*****
 44 50 0 0 0
SMALL
GASTEIGER

@<TRIPOS>ATOM
      1 C         137.7654  142.2815  163.0448 C.3     1  UNL1        0.0700
      2 C         138.0020  142.1283  164.5181 C.3     1  UNL1        0.0193
      3 C         138.3861  140.7920  165.0810 C.3     1  UNL1        0.0286
      4 C         138.5337  139.6090  164.1706 C.3     1  UNL1        0.0932
      5 C         138.2970  139.7623  162.6974 C.3     1  UNL1        0.0286
      6 C         137.9129  141.0986  162.1345 C.3     1  UNL1        0.0193
      7 O         138.3215  140.3211  163.8159 O.3     1  UNL1       -0.3572
      8 C         137.9741  141.5294  163.3069 C.3     1  UNL1        0.1562
      9 N         137.3813  143.6178  162.4819 N.3     1  UNL1       -0.2926
     10 H         137.1481  143.4677  161.5003 H       1  UNL1        0.1236
     11 C         138.3547  144.7582  162.5263 C.3     1  UNL1        0.1152
     12 O         144.1692  141.2297  158.7196 O.2     1  UNL1       -0.2707
     13 C         143.6976  142.1477  159.8082 C.2     1  UNL1        0.2718
     14 C         144.6925  142.8074  160.7164 C.3     1  UNL1        0.2898
     15 O         144.2209  143.7253  161.8049 O.3     1  UNL1       -0.4628
     16 C         142.7544  143.9835  161.9853 C.ar    1  UNL1        0.1708
     17 C         142.2828  144.9015  163.0738 C.ar    1  UNL1        0.0411
     18 C         140.8162  145.1597  163.2542 C.ar    1  UNL1        0.0193
     19 C         139.8212  144.5000  162.3460 C.ar    1  UNL1        0.0765
     20 N         140.2928  143.5821  161.2574 N.ar    1  UNL1       -0.2304
     21 C         141.7595  143.3238  161.0771 C.ar    1  UNL1        0.1682
     22 N         142.2311  142.4059  159.9885 N.am    1  UNL1       -0.2639
     23 H         141.5781  141.9729  159.3924 H       1  UNL1        0.1565
     24 C         138.9178  138.2728  164.7335 C.3     1  UNL1        0.0320
     25 C         140.3492  137.9884  165.0802 C.3     1  UNL1        0.0327
     26 C         141.4532  138.6349  164.2973 C.ar    1  UNL1        0.0261
     27 C         141.8668  138.0648  162.9728 C.ar    1  UNL1        0.1566
     28 F         141.1763  136.8482  162.4314 F       1  UNL1       -0.2028
     29 C         142.9708  138.7113  162.1899 C.ar    1  UNL1        0.1281
     30 N         143.6613  139.9279  162.7313 N.ar    1  UNL1       -0.2400
     31 C         143.2478  140.4980  164.0556 C.ar    1  UNL1        0.0990
     32 C         143.9383  141.7146  164.5970 C.ar    1  UNL1        0.0254
     33 C         143.5247  142.2846  165.9215 C.ar    1  UNL1        0.0593
     34 C         142.4207  141.6381  166.7044 C.ar    1  UNL1        0.2249
     35 N         141.7302  140.4215  166.1630 N.ar    1  UNL1       -0.2104
     36 C         142.1437  139.8515  164.8387 C.ar    1  UNL1        0.1002
     37 O         142.0072  142.2082  168.0288 O.3     1  UNL1       -0.4601
     38 C         140.5571  142.4630  168.3158 C.3     1  UNL1        0.2093
     39 C         139.8768  141.7397  169.4401 C.3     1  UNL1        0.0674
     40 C         139.1638  140.6544  170.1912 C.3     1  UNL1        0.0062
     41 C         139.5468  140.4463  168.7558 C.3     1  UNL1        0.0062
     42 C         139.9705  142.7819  170.5149 C.3     1  UNL1        0.1406
     43 O         141.0221  143.8486  170.4355 O.3     1  UNL1       -0.3819
     44 H         141.8996  143.4448  170.5239 H       1  UNL1        0.2104
@<TRIPOS>BOND
     1    12    13    2
     2    13    14    1
     3    14    15    1
     4    15    16    1
     5    16    17   ar
     6    17    18   ar
     7    18    19   ar
     8    19    11    1
     9    11     9    1
    10     9     1    1
    11     1     2    1
    12     2     3    1
    13     3     4    1
    14     4    24    1
    15    24    25    1
    16    25    26    1
    17    26    27   ar
    18    27    28    1
    19    27    29   ar
    20    29    30   ar
    21    30    31   ar
    22    31    32   ar
    23    32    33   ar
    24    33    34   ar
    25    34    37    1
    26    37    38    1
    27    38    39    1
    28    39    42    1
    29    42    43    1
    30    39    40    1
    31    40    41    1
    32    34    35   ar
    33    35    36   ar
    34     4     5    1
    35     5     6    1
    36     4     7    1
    37     7     8    1
    38    19    20   ar
    39    20    21   ar
    40    21    22    1
    41    22    13   am
    42    21    16   ar
    43     6     1    1
    44     8     1    1
    45    36    26   ar
    46    36    31   ar
    47    41    39    1
    48     9    10    1
    49    43    44    1
    50    22    23    1
@<TRIPOS>MOLECULE
*****
 44 50 0 0 0
SMALL
GASTEIGER

@<TRIPOS>ATOM
      1 C         144.2633  139.7752  163.3176 C.3     1  UNL1        0.0700
      2 C         143.1471  139.4769  162.3610 C.3     1  UNL1        0.0193
      3 C         141.9486  138.7032  162.8247 C.3     1  UNL1        0.0286
      4 C         141.8663  138.2279  164.2451 C.3     1  UNL1        0.0932
      5 C         142.9825  138.5262  165.2017 C.3     1  UNL1        0.0286
      6 C         144.1811  139.2999  164.7379 C.3     1  UNL1        0.0193
      7 O         142.5430  138.6483  164.0372 O.3     1  UNL1       -0.3572
      8 C         143.6267  139.3479  163.6179 C.3     1  UNL1        0.1562
      9 N         145.4618  140.5488  162.8539 N.3     1  UNL1       -0.2926
     10 H         146.2807  140.0911  163.2541 H       1  UNL1        0.1236
     11 C         145.5819  142.0092  163.1748 C.3     1  UNL1        0.1152
     12 O         139.9948  145.5366  159.0406 O.2     1  UNL1       -0.2707
     13 C         140.6460  145.2438  160.3598 C.2     1  UNL1        0.2718
     14 C         140.0861  145.8339  161.6200 C.3     1  UNL1        0.2898
     15 O         140.7374  145.5411  162.9391 O.3     1  UNL1       -0.4628
     16 C         141.9485  144.6582  162.9981 C.ar    1  UNL1        0.1708
     17 C         142.5998  144.3654  164.3172 C.ar    1  UNL1        0.0411
     18 C         143.8109  143.4824  164.3761 C.ar    1  UNL1        0.0193
     19 C         144.3708  142.8922  163.1158 C.ar    1  UNL1        0.0765
     20 N         143.7196  143.1850  161.7967 N.ar    1  UNL1       -0.2304
     21 C         142.5084  144.0680  161.7378 C.ar    1  UNL1        0.1682
     22 N         141.8571  144.3608  160.4187 N.am    1  UNL1       -0.2639
     23 H         142.2246  143.9735  159.5916 H       1  UNL1        0.1565
     24 C         140.6678  137.4542  164.7088 C.3     1  UNL1        0.0320
     25 C         139.4857  138.1763  165.2842 C.3     1  UNL1        0.0327
     26 C         139.5117  139.6700  165.4185 C.ar    1  UNL1        0.0261
     27 C         140.0734  140.3020  166.6575 C.ar    1  UNL1        0.1566
     28 F         140.6090  139.4402  167.7623 F       1  UNL1       -0.2028
     29 C         140.0995  141.7957  166.7918 C.ar    1  UNL1        0.1281
     30 N         139.5639  142.6575  165.6870 N.ar    1  UNL1       -0.2400
     31 C         139.0022  142.0256  164.4480 C.ar    1  UNL1        0.0990
     32 C         138.4667  142.8874  163.3433 C.ar    1  UNL1        0.0254
     33 C         137.9050  142.2554  162.1042 C.ar    1  UNL1        0.0593
     34 C         137.8789  140.7617  161.9700 C.ar    1  UNL1        0.2249
     35 N         138.4145  139.8999  163.0747 N.ar    1  UNL1       -0.2104
     36 C         138.9762  140.5318  164.3137 C.ar    1  UNL1        0.1002
     37 O         137.3173  140.1297  160.7310 O.3     1  UNL1       -0.4601
     38 C         137.9860  140.3516  159.4067 C.3     1  UNL1        0.2093
     39 C         139.4752  140.2172  159.2866 C.3     1  UNL1        0.0674
     40 C         140.8400  139.5950  159.3007 C.3     1  UNL1        0.0062
     41 C         139.6342  138.7660  159.6313 C.3     1  UNL1        0.0062
     42 C         139.8332  141.6217  158.9003 C.3     1  UNL1        0.1406
     43 O         138.7656  142.6722  158.8180 O.3     1  UNL1       -0.3819
     44 H         138.1543  142.4561  158.0965 H       1  UNL1        0.2104
@<TRIPOS>BOND
     1    12    13    2
     2    13    14    1
     3    14    15    1
     4    15    16    1
     5    16    17   ar
     6    17    18   ar
     7    18    19   ar
     8    19    11    1
     9    11     9    1
    10     9     1    1
    11     1     2    1
    12     2     3    1
    13     3     4    1
    14     4    24    1
    15    24    25    1
    16    25    26    1
    17    26    27   ar
    18    27    28    1
    19    27    29   ar
    20    29    30   ar
    21    30    31   ar
    22    31    32   ar
    23    32    33   ar
    24    33    34   ar
    25    34    37    1
    26    37    38    1
    27    38    39    1
    28    39    42    1
    29    42    43    1
    30    39    40    1
    31    40    41    1
    32    34    35   ar
    33    35    36   ar
    34     4     5    1
    35     5     6    1
    36     4     7    1
    37     7     8    1
    38    19    20   ar
    39    20    21   ar
    40    21    22    1
    41    22    13   am
    42    21    16   ar
    43     6     1    1
    44     8     1    1
    45    36    26   ar
    46    36    31   ar
    47    41    39    1
    48     9    10    1
    49    43    44    1
    50    22    23    1
@<TRIPOS>MOLECULE
*****
 44 50 0 0 0
SMALL
GASTEIGER

@<TRIPOS>ATOM
      1 C         140.2402  144.9689  162.6077 C.3     1  UNL1        0.0700
      2 C         141.0170  144.5925  161.3810 C.3     1  UNL1        0.0193
      3 C         142.4567  144.1887  161.4994 C.3     1  UNL1        0.0286
      4 C         143.1198  144.1613  162.8447 C.3     1  UNL1        0.0932
      5 C         142.3430  144.5377  164.0715 C.3     1  UNL1        0.0286
      6 C         140.9032  144.9415  163.9529 C.3     1  UNL1        0.0193
      7 O         142.3287  144.3893  162.8297 O.3     1  UNL1       -0.3572
      8 C         141.0269  144.7544  162.7226 C.3     1  UNL1        0.1562
      9 N         138.8005  145.3727  162.4892 N.3     1  UNL1       -0.2926
     10 H         138.6625  146.1602  163.1226 H       1  UNL1        0.1236
     11 C         137.7161  144.3806  162.7892 C.3     1  UNL1        0.1152
     12 O         138.6925  137.1565  165.5476 O.2     1  UNL1       -0.2707
     13 C         138.6005  138.1025  164.3872 C.2     1  UNL1        0.2718
     14 C         138.7420  137.5866  162.9859 C.3     1  UNL1        0.2898
     15 O         138.6500  138.5326  161.8255 O.3     1  UNL1       -0.4628
     16 C         138.4165  139.9946  162.0664 C.ar    1  UNL1        0.1708
     17 C         138.3246  140.9406  160.9060 C.ar    1  UNL1        0.0411
     18 C         138.0911  142.4026  161.1469 C.ar    1  UNL1        0.0193
     19 C         137.9496  142.9186  162.5483 C.ar    1  UNL1        0.0765
     20 N         138.0416  141.9726  163.7087 N.ar    1  UNL1       -0.2304
     21 C         138.2751  140.5105  163.4677 C.ar    1  UNL1        0.1682
     22 N         138.3670  139.5645  164.6281 N.am    1  UNL1       -0.2639
     23 H         138.2742  139.9031  165.5479 H       1  UNL1        0.1565
     24 C         144.5595  143.7575  162.9632 C.3     1  UNL1        0.0320
     25 C         144.9248  142.4764  163.6527 C.3     1  UNL1        0.0327
     26 C         144.0644  141.2600  163.4802 C.ar    1  UNL1        0.0261
     27 C         143.9133  140.6342  162.1253 C.ar    1  UNL1        0.1566
     28 F         144.6227  141.2249  160.9430 F       1  UNL1       -0.2028
     29 C         143.0529  139.4177  161.9528 C.ar    1  UNL1        0.1281
     30 N         142.3435  138.8270  163.1351 N.ar    1  UNL1       -0.2400
     31 C         142.4945  139.4527  164.4899 C.ar    1  UNL1        0.0990
     32 C         141.7851  138.8620  165.6722 C.ar    1  UNL1        0.0254
     33 C         141.9362  139.4878  167.0271 C.ar    1  UNL1        0.0593
     34 C         142.7967  140.7043  167.1996 C.ar    1  UNL1        0.2249
     35 N         143.5061  141.2950  166.0173 N.ar    1  UNL1       -0.2104
     36 C         143.3550  140.6692  164.6625 C.ar    1  UNL1        0.1002
     37 O         142.9477  141.3300  168.5544 O.3     1  UNL1       -0.4601
     38 C         142.1459  142.5461  168.9125 C.3     1  UNL1        0.2093
     39 C         141.0272  142.4409  169.9063 C.3     1  UNL1        0.0674
     40 C         139.8175  142.8129  170.7115 C.3     1  UNL1        0.0062
     41 C         140.3769  143.7781  169.7087 C.3     1  UNL1        0.0062
     42 C         141.2889  141.0672  170.4489 C.3     1  UNL1        0.1406
     43 O         142.1612  140.8915  171.6564 O.3     1  UNL1       -0.3819
     44 H         143.0691  141.1566  171.4409 H       1  UNL1        0.2104
@<TRIPOS>BOND
     1    12    13    2
     2    13    14    1
     3    14    15    1
     4    15    16    1
     5    16    17   ar
     6    17    18   ar
     7    18    19   ar
     8    19    11    1
     9    11     9    1
    10     9     1    1
    11     1     2    1
    12     2     3    1
    13     3     4    1
    14     4    24    1
    15    24    25    1
    16    25    26    1
    17    26    27   ar
    18    27    28    1
    19    27    29   ar
    20    29    30   ar
    21    30    31   ar
    22    31    32   ar
    23    32    33   ar
    24    33    34   ar
    25    34    37    1
    26    37    38    1
    27    38    39    1
    28    39    42    1
    29    42    43    1
    30    39    40    1
    31    40    41    1
    32    34    35   ar
    33    35    36   ar
    34     4     5    1
    35     5     6    1
    36     4     7    1
    37     7     8    1
    38    19    20   ar
    39    20    21   ar
    40    21    22    1
    41    22    13   am
    42    21    16   ar
    43     6     1    1
    44     8     1    1
    45    36    26   ar
    46    36    31   ar
    47    41    39    1
    48     9    10    1
    49    43    44    1
    50    22    23    1
