@<TRIPOS>MOLECULE
*****
 38 42 0 0 0
SMALL
GASTEIGER

@<TRIPOS>ATOM
      1 C         140.6801  144.9849  159.6391 C.ar    1  UNL1        0.0536
      2 C         139.9151  145.8107  160.6304 C.ar    1  UNL1        0.0042
      3 C         140.3130  145.8055  162.0767 C.ar    1  UNL1       -0.0041
      4 C         141.4759  144.9744  162.5316 C.ar    1  UNL1       -0.0208
      5 C         142.2410  144.1486  161.5403 C.ar    1  UNL1       -0.0041
      6 C         141.8431  144.1538  160.0941 C.ar    1  UNL1        0.0042
      7 N         137.7495  141.6560  156.5441 N.3     1  UNL1       -0.2632
      8 C         138.1474  141.6507  157.9903 C.3     1  UNL1        0.0942
      9 C         138.9916  142.7621  158.5399 C.3     1  UNL1        0.1111
     10 N         139.4380  143.8787  157.6432 N.am    1  UNL1       -0.2732
     11 C         140.2823  144.9901  158.1929 C.2     1  UNL1        0.2491
     12 O         140.7286  146.1067  157.2962 O.2     1  UNL1       -0.2699
     13 C         139.0401  143.8839  156.1970 C.3     1  UNL1        0.1111
     14 C         138.1959  142.7726  155.6474 C.3     1  UNL1        0.0942
     15 C         136.9053  140.5445  155.9944 C.3     1  UNL1        0.1427
     16 N         133.0663  140.3166  156.5198 N.ar    1  UNL1       -0.1512
     17 N         133.1531  141.3938  155.4796 N.ar    1  UNL1       -0.0454
     18 N         134.6017  141.6103  155.1562 N.ar    1  UNL1       -0.1108
     19 C         135.4103  140.6669  155.9965 C.ar    1  UNL1        0.1994
     20 N         134.4614  139.8673  156.8393 N.ar    1  UNL1       -0.1328
     21 C         131.3792  138.3705  156.8604 C.3     1  UNL1        0.0305
     22 C         131.8059  139.7824  157.1329 C.3     1  UNL1        0.1514
     23 C         141.8738  144.9692  163.9778 C.3     1  UNL1        0.0420
     24 C         142.3685  143.7046  164.6151 C.3     1  UNL1        0.0585
     25 C         143.7766  143.1892  164.5746 C.3     1  UNL1        0.0175
     26 C         143.8202  141.8994  165.3392 C.3     1  UNL1        0.0199
     27 C         142.4391  141.6177  165.8522 C.3     1  UNL1        0.0855
     28 N         141.5419  142.7334  165.4047 N.3     1  UNL1       -0.2971
     29 H         141.1399  143.2013  166.2170 H       1  UNL1        0.1233
     30 C         142.0275  140.4290  166.6693 C.3     1  UNL1        0.1470
     31 O         142.7400  140.1176  167.9520 O.3     1  UNL1       -0.3787
     32 H         142.3530  139.3232  168.3521 H       1  UNL1        0.2108
     33 C         140.9034  139.5518  166.2036 C.ar    1  UNL1        0.0055
     34 C         139.5152  139.7697  166.7285 C.ar    1  UNL1       -0.0019
     35 C         138.3911  138.8925  166.2628 C.ar    1  UNL1       -0.0002
     36 C         138.6551  137.7974  165.2723 C.ar    1  UNL1       -0.0000
     37 C         140.0433  137.5795  164.7475 C.ar    1  UNL1       -0.0002
     38 C         141.1674  138.4567  165.2132 C.ar    1  UNL1       -0.0019
@<TRIPOS>BOND
     1    21    22    1
     2    22    16    1
     3    16    17   ar
     4    17    18   ar
     5    18    19   ar
     6    19    15    1
     7    15     7    1
     8     7     8    1
     9     8     9    1
    10     9    10    1
    11    10    11   am
    12    11    12    2
    13    11     1    1
    14     1     2   ar
    15     2     3   ar
    16     3     4   ar
    17     4    23    1
    18    24    23    1
    19    24    25    1
    20    25    26    1
    21    27    26    1
    22    27    30    1
    23    30    31    1
    24    30    33    1
    25    33    34   ar
    26    34    35   ar
    27    35    36   ar
    28    36    37   ar
    29    37    38   ar
    30    27    28    1
    31     4     5   ar
    32     5     6   ar
    33    10    13    1
    34    13    14    1
    35    19    20   ar
    36    20    16   ar
    37    14     7    1
    38     6     1   ar
    39    28    24    1
    40    38    33   ar
    41    31    32    1
    42    28    29    1
@<TRIPOS>MOLECULE
*****
 38 42 0 0 0
SMALL
GASTEIGER

@<TRIPOS>ATOM
      1 C         138.2351  139.3122  162.3519 C.ar    1  UNL1        0.0536
      2 C         138.6460  138.0591  163.0667 C.ar    1  UNL1        0.0042
      3 C         138.7269  138.0422  164.5645 C.ar    1  UNL1       -0.0041
      4 C         138.3969  139.2783  165.3474 C.ar    1  UNL1       -0.0208
      5 C         137.9860  140.5314  164.6326 C.ar    1  UNL1       -0.0041
      6 C         137.9051  140.5484  163.1349 C.ar    1  UNL1        0.0042
      7 N         141.9237  139.2985  158.3968 N.3     1  UNL1       -0.2632
      8 C         142.0047  139.2816  159.8945 C.3     1  UNL1        0.0942
      9 C         140.7481  139.2918  160.7136 C.3     1  UNL1        0.1111
     10 N         139.4107  139.3189  160.0350 N.am    1  UNL1       -0.2732
     11 C         138.1541  139.3291  160.8542 C.2     1  UNL1        0.2491
     12 O         136.8167  139.3563  160.1757 O.2     1  UNL1       -0.2699
     13 C         139.3297  139.3359  158.5373 C.3     1  UNL1        0.1111
     14 C         140.5863  139.3257  157.7182 C.3     1  UNL1        0.0942
     15 C         143.1803  139.2883  157.5776 C.3     1  UNL1        0.1427
     16 N         145.9428  141.9745  157.1108 N.ar    1  UNL1       -0.1512
     17 N         145.0989  142.6087  158.1765 N.ar    1  UNL1       -0.0454
     18 N         143.9613  141.6796  158.4810 N.ar    1  UNL1       -0.1108
     19 C         144.1022  140.4712  157.6036 C.ar    1  UNL1        0.1994
     20 N         145.3268  140.6535  156.7568 N.ar    1  UNL1       -0.1328
     21 C         147.9575  141.7812  155.4819 C.3     1  UNL1        0.0305
     22 C         147.1847  142.5588  156.5056 C.3     1  UNL1        0.1514
     23 C         138.4779  139.2614  166.8451 C.3     1  UNL1        0.0420
     24 C         139.5738  140.0086  167.5455 C.3     1  UNL1        0.0585
     25 C         139.6511  140.2852  169.0178 C.3     1  UNL1        0.0175
     26 C         140.9100  141.0579  169.2787 C.3     1  UNL1        0.0199
     27 C         141.6108  141.2588  167.9678 C.3     1  UNL1        0.0855
     28 N         140.7850  140.6103  166.8966 N.3     1  UNL1       -0.2971
     29 H         141.3284  139.8811  166.4345 H       1  UNL1        0.1233
     30 C         142.9094  141.9813  167.7639 C.3     1  UNL1        0.1470
     31 O         143.6022  142.6221  168.9298 O.3     1  UNL1       -0.3787
     32 H         144.4219  143.0433  168.6272 H       1  UNL1        0.2108
     33 C         143.5151  142.0631  166.3941 C.ar    1  UNL1        0.0055
     34 C         143.7034  140.8164  165.5816 C.ar    1  UNL1       -0.0019
     35 C         144.3091  140.8982  164.2118 C.ar    1  UNL1       -0.0002
     36 C         144.7264  142.2268  163.6544 C.ar    1  UNL1       -0.0000
     37 C         144.5381  143.4735  164.4668 C.ar    1  UNL1       -0.0002
     38 C         143.9324  143.3917  165.8366 C.ar    1  UNL1       -0.0019
@<TRIPOS>BOND
     1    21    22    1
     2    22    16    1
     3    16    17   ar
     4    17    18   ar
     5    18    19   ar
     6    19    15    1
     7    15     7    1
     8     7     8    1
     9     8     9    1
    10     9    10    1
    11    10    11   am
    12    11    12    2
    13    11     1    1
    14     1     2   ar
    15     2     3   ar
    16     3     4   ar
    17     4    23    1
    18    24    23    1
    19    24    25    1
    20    25    26    1
    21    27    26    1
    22    27    30    1
    23    30    31    1
    24    30    33    1
    25    33    34   ar
    26    34    35   ar
    27    35    36   ar
    28    36    37   ar
    29    37    38   ar
    30    27    28    1
    31     4     5   ar
    32     5     6   ar
    33    10    13    1
    34    13    14    1
    35    19    20   ar
    36    20    16   ar
    37    14     7    1
    38     6     1   ar
    39    28    24    1
    40    38    33   ar
    41    31    32    1
    42    28    29    1
@<TRIPOS>MOLECULE
*****
 38 42 0 0 0
SMALL
GASTEIGER

@<TRIPOS>ATOM
      1 C         138.2274  139.2350  162.2972 C.ar    1  UNL1        0.0536
      2 C         138.6531  138.0012  163.0364 C.ar    1  UNL1        0.0042
      3 C         138.7467  138.0185  164.5334 C.ar    1  UNL1       -0.0041
      4 C         138.4145  139.2697  165.2912 C.ar    1  UNL1       -0.0208
      5 C         137.9888  140.5035  164.5520 C.ar    1  UNL1       -0.0041
      6 C         137.8952  140.4862  163.0551 C.ar    1  UNL1        0.0042
      7 N         141.7318  138.1133  158.3336 N.3     1  UNL1       -0.2632
      8 C         141.8254  138.1306  159.8306 C.3     1  UNL1        0.0942
      9 C         140.6261  138.4987  160.6528 C.3     1  UNL1        0.1111
     10 N         139.3332  138.8495  159.9780 N.am    1  UNL1       -0.2732
     11 C         138.1338  139.2177  160.8003 C.2     1  UNL1        0.2491
     12 O         136.8409  139.5685  160.1255 O.2     1  UNL1       -0.2699
     13 C         139.2396  138.8322  158.4810 C.3     1  UNL1        0.1111
     14 C         140.4389  138.4641  157.6589 C.3     1  UNL1        0.0942
     15 C         142.9312  137.7451  157.5114 C.3     1  UNL1        0.1427
     16 N         143.2940  134.0156  156.4994 N.ar    1  UNL1       -0.1512
     17 N         142.9428  134.6406  155.1818 N.ar    1  UNL1       -0.0454
     18 N         142.7642  136.1138  155.4005 N.ar    1  UNL1       -0.1108
     19 C         143.0049  136.3992  156.8533 C.ar    1  UNL1        0.1994
     20 N         143.3324  135.1025  157.5324 N.ar    1  UNL1       -0.1328
     21 C         144.8047  131.9237  156.1968 C.3     1  UNL1        0.0305
     22 C         143.5600  132.5593  156.7414 C.3     1  UNL1        0.1514
     23 C         138.5081  139.2870  166.7881 C.3     1  UNL1        0.0420
     24 C         139.6413  140.0038  167.4605 C.3     1  UNL1        0.0585
     25 C         139.8170  140.1840  168.9394 C.3     1  UNL1        0.0175
     26 C         141.0820  140.9578  169.1649 C.3     1  UNL1        0.0199
     27 C         141.6881  141.2560  167.8256 C.3     1  UNL1        0.0855
     28 N         140.7977  140.6664  166.7723 N.3     1  UNL1       -0.2971
     29 H         141.3161  139.9781  166.2264 H       1  UNL1        0.1233
     30 C         142.9611  142.0111  167.5824 C.3     1  UNL1        0.1470
     31 O         143.6814  142.6560  168.7293 O.3     1  UNL1       -0.3787
     32 H         144.4793  143.0996  168.4015 H       1  UNL1        0.2108
     33 C         143.5138  142.1213  166.1923 C.ar    1  UNL1        0.0055
     34 C         143.7043  140.8875  165.3609 C.ar    1  UNL1       -0.0019
     35 C         144.2570  140.9977  163.9708 C.ar    1  UNL1       -0.0002
     36 C         144.6193  142.3418  163.4121 C.ar    1  UNL1       -0.0000
     37 C         144.4288  143.5757  164.2435 C.ar    1  UNL1       -0.0002
     38 C         143.8761  143.4654  165.6336 C.ar    1  UNL1       -0.0019
@<TRIPOS>BOND
     1    21    22    1
     2    22    16    1
     3    16    17   ar
     4    17    18   ar
     5    18    19   ar
     6    19    15    1
     7    15     7    1
     8     7     8    1
     9     8     9    1
    10     9    10    1
    11    10    11   am
    12    11    12    2
    13    11     1    1
    14     1     2   ar
    15     2     3   ar
    16     3     4   ar
    17     4    23    1
    18    24    23    1
    19    24    25    1
    20    25    26    1
    21    27    26    1
    22    27    30    1
    23    30    31    1
    24    30    33    1
    25    33    34   ar
    26    34    35   ar
    27    35    36   ar
    28    36    37   ar
    29    37    38   ar
    30    27    28    1
    31     4     5   ar
    32     5     6   ar
    33    10    13    1
    34    13    14    1
    35    19    20   ar
    36    20    16   ar
    37    14     7    1
    38     6     1   ar
    39    28    24    1
    40    38    33   ar
    41    31    32    1
    42    28    29    1
@<TRIPOS>MOLECULE
*****
 38 42 0 0 0
SMALL
GASTEIGER

@<TRIPOS>ATOM
      1 C         143.9451  142.6278  159.2099 C.ar    1  UNL1        0.0536
      2 C         144.5152  142.4355  160.5840 C.ar    1  UNL1        0.0042
      3 C         143.8638  143.0922  161.7649 C.ar    1  UNL1       -0.0041
      4 C         142.6425  143.9413  161.5717 C.ar    1  UNL1       -0.0208
      5 C         142.0724  144.1337  160.1977 C.ar    1  UNL1       -0.0041
      6 C         142.7237  143.4770  159.0168 C.ar    1  UNL1        0.0042
      7 N         142.7648  138.2847  156.2110 N.3     1  UNL1       -0.2632
      8 C         142.1135  138.9414  157.3919 C.3     1  UNL1        0.0942
      9 C         142.7241  140.1702  157.9979 C.3     1  UNL1        0.1111
     10 N         143.9859  140.7423  157.4230 N.am    1  UNL1       -0.2732
     11 C         144.5964  141.9711  158.0291 C.2     1  UNL1        0.2491
     12 O         145.8582  142.5433  157.4542 O.2     1  UNL1       -0.2699
     13 C         144.6372  140.0856  156.2421 C.3     1  UNL1        0.1111
     14 C         144.0267  138.8568  155.6362 C.3     1  UNL1        0.0942
     15 C         142.1543  137.0558  155.6050 C.3     1  UNL1        0.1427
     16 N         142.6439  133.2967  156.4385 N.ar    1  UNL1       -0.1512
     17 N         143.3186  133.9440  157.6115 N.ar    1  UNL1       -0.0454
     18 N         143.2174  135.4309  157.4419 N.ar    1  UNL1       -0.1108
     19 C         142.4800  135.7027  156.1643 C.ar    1  UNL1        0.1994
     20 N         142.1256  134.3836  155.5441 N.ar    1  UNL1       -0.1328
     21 C         143.7310  130.9922  155.9311 C.3     1  UNL1        0.0305
     22 C         142.5108  131.8215  156.2016 C.3     1  UNL1        0.1514
     23 C         141.9912  144.5980  162.7526 C.3     1  UNL1        0.0420
     24 C         140.7466  144.0081  163.3469 C.3     1  UNL1        0.0585
     25 C         139.9552  144.5821  164.4846 C.3     1  UNL1        0.0175
     26 C         138.7944  143.6694  164.7486 C.3     1  UNL1        0.0199
     27 C         138.8684  142.5315  163.7741 C.3     1  UNL1        0.0855
     28 N         140.0749  142.7409  162.9078 N.3     1  UNL1       -0.2971
     29 H         139.7904  142.8202  161.9315 H       1  UNL1        0.1233
     30 C         137.9050  141.3855  163.6821 C.3     1  UNL1        0.1470
     31 O         136.5515  141.5909  163.0690 O.3     1  UNL1       -0.3787
     32 H         136.0580  140.7560  163.0879 H       1  UNL1        0.2108
     33 C         138.2951  140.0342  164.2033 C.ar    1  UNL1        0.0055
     34 C         138.0757  139.6955  165.6480 C.ar    1  UNL1       -0.0019
     35 C         138.4658  138.3441  166.1691 C.ar    1  UNL1       -0.0002
     36 C         139.0753  137.3314  165.2456 C.ar    1  UNL1       -0.0000
     37 C         139.2946  137.6700  163.8009 C.ar    1  UNL1       -0.0002
     38 C         138.9045  139.0214  163.2797 C.ar    1  UNL1       -0.0019
@<TRIPOS>BOND
     1    21    22    1
     2    22    16    1
     3    16    17   ar
     4    17    18   ar
     5    18    19   ar
     6    19    15    1
     7    15     7    1
     8     7     8    1
     9     8     9    1
    10     9    10    1
    11    10    11   am
    12    11    12    2
    13    11     1    1
    14     1     2   ar
    15     2     3   ar
    16     3     4   ar
    17     4    23    1
    18    24    23    1
    19    24    25    1
    20    25    26    1
    21    27    26    1
    22    27    30    1
    23    30    31    1
    24    30    33    1
    25    33    34   ar
    26    34    35   ar
    27    35    36   ar
    28    36    37   ar
    29    37    38   ar
    30    27    28    1
    31     4     5   ar
    32     5     6   ar
    33    10    13    1
    34    13    14    1
    35    19    20   ar
    36    20    16   ar
    37    14     7    1
    38     6     1   ar
    39    28    24    1
    40    38    33   ar
    41    31    32    1
    42    28    29    1
@<TRIPOS>MOLECULE
*****
 38 42 0 0 0
SMALL
GASTEIGER

@<TRIPOS>ATOM
      1 C         139.8347  144.7376  162.5542 C.ar    1  UNL1        0.0536
      2 C         138.5786  144.2784  163.2335 C.ar    1  UNL1        0.0042
      3 C         138.6314  143.7701  164.6438 C.ar    1  UNL1       -0.0041
      4 C         139.9403  143.7210  165.3748 C.ar    1  UNL1       -0.0208
      5 C         141.1964  144.1802  164.6956 C.ar    1  UNL1       -0.0041
      6 C         141.1436  144.6885  163.2853 C.ar    1  UNL1        0.0042
      7 N         141.3334  142.6982  157.7747 N.3     1  UNL1       -0.2632
      8 C         141.3862  142.1900  159.1849 C.3     1  UNL1        0.0942
      9 C         140.8691  143.0392  160.3080 C.3     1  UNL1        0.1111
     10 N         140.2991  144.3966  160.0208 N.am    1  UNL1       -0.2732
     11 C         139.7819  145.2458  161.1440 C.2     1  UNL1        0.2491
     12 O         139.2119  146.6033  160.8568 O.2     1  UNL1       -0.2699
     13 C         140.2463  144.9049  158.6106 C.3     1  UNL1        0.1111
     14 C         140.7635  144.0557  157.4875 C.3     1  UNL1        0.0942
     15 C         141.8506  141.8490  156.6515 C.3     1  UNL1        0.1427
     16 N         145.7304  141.7688  156.5724 N.ar    1  UNL1       -0.1512
     17 N         145.4046  140.3355  156.2725 N.ar    1  UNL1       -0.0454
     18 N         143.9116  140.1912  156.2657 N.ar    1  UNL1       -0.1108
     19 C         143.3146  141.5352  156.5613 C.ar    1  UNL1        0.1994
     20 N         144.4387  142.5101  156.7509 N.ar    1  UNL1       -0.1328
     21 C         148.1567  141.9894  155.6702 C.3     1  UNL1        0.0305
     22 C         147.1063  142.3572  156.6757 C.3     1  UNL1        0.1514
     23 C         139.9931  143.2128  166.7851 C.3     1  UNL1        0.0420
     24 C         140.8730  142.0480  167.1301 C.3     1  UNL1        0.0585
     25 C         141.4208  141.7291  168.4896 C.3     1  UNL1        0.0175
     26 C         142.2460  140.4816  168.3758 C.3     1  UNL1        0.0199
     27 C         142.2082  140.0295  166.9461 C.3     1  UNL1        0.0855
     28 N         141.3596  140.9976  166.1762 N.3     1  UNL1       -0.2971
     29 H         140.5646  140.5093  165.7640 H       1  UNL1        0.1233
     30 C         142.8978  138.8215  166.3849 C.3     1  UNL1        0.1470
     31 O         143.8398  138.0296  167.2424 O.3     1  UNL1       -0.3787
     32 H         144.1968  137.2872  166.7303 H       1  UNL1        0.2108
     33 C         142.6454  138.4054  164.9660 C.ar    1  UNL1        0.0055
     34 C         141.4647  137.5407  164.6367 C.ar    1  UNL1       -0.0019
     35 C         141.2123  137.1246  163.2179 C.ar    1  UNL1       -0.0002
     36 C         142.1405  137.5731  162.1283 C.ar    1  UNL1       -0.0000
     37 C         143.3212  138.4377  162.4576 C.ar    1  UNL1       -0.0002
     38 C         143.5736  138.8539  163.8764 C.ar    1  UNL1       -0.0019
@<TRIPOS>BOND
     1    21    22    1
     2    22    16    1
     3    16    17   ar
     4    17    18   ar
     5    18    19   ar
     6    19    15    1
     7    15     7    1
     8     7     8    1
     9     8     9    1
    10     9    10    1
    11    10    11   am
    12    11    12    2
    13    11     1    1
    14     1     2   ar
    15     2     3   ar
    16     3     4   ar
    17     4    23    1
    18    24    23    1
    19    24    25    1
    20    25    26    1
    21    27    26    1
    22    27    30    1
    23    30    31    1
    24    30    33    1
    25    33    34   ar
    26    34    35   ar
    27    35    36   ar
    28    36    37   ar
    29    37    38   ar
    30    27    28    1
    31     4     5   ar
    32     5     6   ar
    33    10    13    1
    34    13    14    1
    35    19    20   ar
    36    20    16   ar
    37    14     7    1
    38     6     1   ar
    39    28    24    1
    40    38    33   ar
    41    31    32    1
    42    28    29    1
@<TRIPOS>MOLECULE
*****
 38 42 0 0 0
SMALL
GASTEIGER

@<TRIPOS>ATOM
      1 C         140.6323  140.7391  158.8150 C.ar    1  UNL1        0.0536
      2 C         139.1796  140.4472  158.5822 C.ar    1  UNL1        0.0042
      3 C         138.2256  140.4176  159.7395 C.ar    1  UNL1       -0.0041
      4 C         138.7245  140.6799  161.1295 C.ar    1  UNL1       -0.0208
      5 C         140.1773  140.9718  161.3624 C.ar    1  UNL1       -0.0041
      6 C         141.1312  141.0014  160.2052 C.ar    1  UNL1        0.0042
      7 N         143.4934  136.9564  156.2160 N.3     1  UNL1       -0.2632
      8 C         142.5395  136.9268  157.3732 C.3     1  UNL1        0.0942
      9 C         141.9038  138.1975  157.8538 C.3     1  UNL1        0.1111
     10 N         142.2220  139.4979  157.1772 N.am    1  UNL1       -0.2732
     11 C         141.5862  140.7687  157.6578 C.2     1  UNL1        0.2491
     12 O         141.9044  142.0691  156.9812 O.2     1  UNL1       -0.2699
     13 C         143.1759  139.5275  156.0200 C.3     1  UNL1        0.1111
     14 C         143.8116  138.2567  155.5394 C.3     1  UNL1        0.0942
     15 C         144.1292  135.6856  155.7354 C.3     1  UNL1        0.1427
     16 N         142.0368  132.4214  155.5549 N.ar    1  UNL1       -0.1512
     17 N         142.6571  132.2934  156.9147 N.ar    1  UNL1       -0.0454
     18 N         143.5164  133.5005  157.1478 N.ar    1  UNL1       -0.1108
     19 C         143.4272  134.3747  155.9321 C.ar    1  UNL1        0.1994
     20 N         142.5128  133.7078  154.9477 N.ar    1  UNL1       -0.1328
     21 C         141.3376  129.9641  155.0833 C.3     1  UNL1        0.0305
     22 C         141.1043  131.4362  154.9149 C.3     1  UNL1        0.1514
     23 C         137.7706  140.6503  162.2867 C.3     1  UNL1        0.0420
     24 C         138.1018  139.8500  163.5114 C.3     1  UNL1        0.0585
     25 C         138.7102  138.4790  163.5310 C.3     1  UNL1        0.0175
     26 C         138.8672  138.0620  164.9633 C.3     1  UNL1        0.0199
     27 C         138.3558  139.1752  165.8289 C.3     1  UNL1        0.0855
     28 N         137.8828  140.2802  164.9316 N.3     1  UNL1       -0.2971
     29 H         138.4127  141.1309  165.1212 H       1  UNL1        0.1233
     30 C         138.3232  139.1821  167.3285 C.3     1  UNL1        0.1470
     31 O         137.3470  138.3105  168.0615 O.3     1  UNL1       -0.3787
     32 H         137.4573  138.4343  169.0172 H       1  UNL1        0.2108
     33 C         139.2669  140.0606  168.0951 C.ar    1  UNL1        0.0055
     34 C         140.4099  140.7287  167.3900 C.ar    1  UNL1       -0.0019
     35 C         141.3536  141.6072  168.1567 C.ar    1  UNL1       -0.0002
     36 C         141.1543  141.8176  169.6284 C.ar    1  UNL1       -0.0000
     37 C         140.0113  141.1495  170.3335 C.ar    1  UNL1       -0.0002
     38 C         139.0676  140.2710  169.5668 C.ar    1  UNL1       -0.0019
@<TRIPOS>BOND
     1    21    22    1
     2    22    16    1
     3    16    17   ar
     4    17    18   ar
     5    18    19   ar
     6    19    15    1
     7    15     7    1
     8     7     8    1
     9     8     9    1
    10     9    10    1
    11    10    11   am
    12    11    12    2
    13    11     1    1
    14     1     2   ar
    15     2     3   ar
    16     3     4   ar
    17     4    23    1
    18    24    23    1
    19    24    25    1
    20    25    26    1
    21    27    26    1
    22    27    30    1
    23    30    31    1
    24    30    33    1
    25    33    34   ar
    26    34    35   ar
    27    35    36   ar
    28    36    37   ar
    29    37    38   ar
    30    27    28    1
    31     4     5   ar
    32     5     6   ar
    33    10    13    1
    34    13    14    1
    35    19    20   ar
    36    20    16   ar
    37    14     7    1
    38     6     1   ar
    39    28    24    1
    40    38    33   ar
    41    31    32    1
    42    28    29    1
@<TRIPOS>MOLECULE
*****
 38 42 0 0 0
SMALL
GASTEIGER

@<TRIPOS>ATOM
      1 C         138.0844  140.5927  159.6081 C.ar    1  UNL1        0.0536
      2 C         137.7152  139.5531  160.6245 C.ar    1  UNL1        0.0042
      3 C         137.6463  139.9167  162.0782 C.ar    1  UNL1       -0.0041
      4 C         137.9465  141.3198  162.5154 C.ar    1  UNL1       -0.0208
      5 C         138.3156  142.3594  161.4990 C.ar    1  UNL1       -0.0041
      6 C         138.3846  141.9958  160.0454 C.ar    1  UNL1        0.0042
      7 N         141.6006  137.7852  156.6076 N.3     1  UNL1       -0.2632
      8 C         141.5317  138.1487  158.0612 C.3     1  UNL1        0.0942
      9 C         140.3826  138.9633  158.5768 C.3     1  UNL1        0.1111
     10 N         139.3025  139.4145  157.6388 N.am    1  UNL1       -0.2732
     11 C         138.1534  140.2292  158.1545 C.2     1  UNL1        0.2491
     12 O         137.0732  140.6803  157.2165 O.2     1  UNL1       -0.2699
     13 C         139.3715  139.0510  156.1852 C.3     1  UNL1        0.1111
     14 C         140.5205  138.2363  155.6696 C.3     1  UNL1        0.0942
     15 C         142.7498  136.9705  156.0919 C.3     1  UNL1        0.1427
     16 N         143.3528  133.1879  156.7194 N.ar    1  UNL1       -0.1512
     17 N         142.0043  133.1615  156.0629 N.ar    1  UNL1       -0.0454
     18 N         141.6143  134.5752  155.7479 N.ar    1  UNL1       -0.1108
     19 C         142.7217  135.4754  156.2097 C.ar    1  UNL1        0.1994
     20 N         143.7962  134.6180  156.8101 N.ar    1  UNL1       -0.1328
     21 C         144.9943  131.2300  156.2484 C.3     1  UNL1        0.0305
     22 C         144.1227  131.9939  157.2005 C.3     1  UNL1        0.1514
     23 C         137.8775  141.6833  163.9690 C.3     1  UNL1        0.0420
     24 C         138.8165  141.0427  164.9477 C.3     1  UNL1        0.0585
     25 C         138.4404  140.0594  166.0164 C.3     1  UNL1        0.0175
     26 C         139.6880  139.6819  166.7587 C.3     1  UNL1        0.0199
     27 C         140.8351  140.4318  166.1489 C.3     1  UNL1        0.0855
     28 N         140.2965  141.2728  165.0297 N.3     1  UNL1       -0.2971
     29 H         140.7379  141.0030  164.1506 H       1  UNL1        0.1233
     30 C         142.2689  140.3542  166.5823 C.3     1  UNL1        0.1470
     31 O         142.6180  139.7695  167.9188 O.3     1  UNL1       -0.3787
     32 H         143.5798  139.7947  168.0415 H       1  UNL1        0.2108
     33 C         143.3539  140.8614  165.6791 C.ar    1  UNL1        0.0055
     34 C         144.1064  139.9061  164.8010 C.ar    1  UNL1       -0.0019
     35 C         145.1913  140.4133  163.8979 C.ar    1  UNL1       -0.0002
     36 C         145.5237  141.8758  163.8728 C.ar    1  UNL1       -0.0000
     37 C         144.7712  142.8311  164.7508 C.ar    1  UNL1       -0.0002
     38 C         143.6863  142.3239  165.6540 C.ar    1  UNL1       -0.0019
@<TRIPOS>BOND
     1    21    22    1
     2    22    16    1
     3    16    17   ar
     4    17    18   ar
     5    18    19   ar
     6    19    15    1
     7    15     7    1
     8     7     8    1
     9     8     9    1
    10     9    10    1
    11    10    11   am
    12    11    12    2
    13    11     1    1
    14     1     2   ar
    15     2     3   ar
    16     3     4   ar
    17     4    23    1
    18    24    23    1
    19    24    25    1
    20    25    26    1
    21    27    26    1
    22    27    30    1
    23    30    31    1
    24    30    33    1
    25    33    34   ar
    26    34    35   ar
    27    35    36   ar
    28    36    37   ar
    29    37    38   ar
    30    27    28    1
    31     4     5   ar
    32     5     6   ar
    33    10    13    1
    34    13    14    1
    35    19    20   ar
    36    20    16   ar
    37    14     7    1
    38     6     1   ar
    39    28    24    1
    40    38    33   ar
    41    31    32    1
    42    28    29    1
@<TRIPOS>MOLECULE
*****
 38 42 0 0 0
SMALL
GASTEIGER

@<TRIPOS>ATOM
      1 C         139.1352  141.1421  158.6397 C.ar    1  UNL1        0.0536
      2 C         138.6855  140.9791  160.0614 C.ar    1  UNL1        0.0042
      3 C         138.9101  142.0844  161.0504 C.ar    1  UNL1       -0.0041
      4 C         139.5843  143.3525  160.6177 C.ar    1  UNL1       -0.0208
      5 C         140.0340  143.5154  159.1960 C.ar    1  UNL1       -0.0041
      6 C         139.8094  142.4103  158.2070 C.ar    1  UNL1        0.0042
      7 N         142.1069  136.9436  156.9691 N.3     1  UNL1       -0.2632
      8 C         142.3315  138.0487  157.9581 C.3     1  UNL1        0.0942
      9 C         141.2661  139.0798  158.1853 C.3     1  UNL1        0.1111
     10 N         139.9761  139.0058  157.4234 N.am    1  UNL1       -0.2732
     11 C         138.9106  140.0370  157.6506 C.2     1  UNL1        0.2491
     12 O         137.6206  139.9629  156.8888 O.2     1  UNL1       -0.2699
     13 C         139.7515  137.9006  156.4344 C.3     1  UNL1        0.1111
     14 C         140.8169  136.8696  156.2073 C.3     1  UNL1        0.0942
     15 C         143.1724  135.9124  156.7419 C.3     1  UNL1        0.1427
     16 N         141.9748  132.4824  155.3759 N.ar    1  UNL1       -0.1512
     17 N         142.4349  132.1018  156.7520 N.ar    1  UNL1       -0.0454
     18 N         142.9396  133.3404  157.4312 N.ar    1  UNL1       -0.1108
     19 C         142.7913  134.4865  156.4749 C.ar    1  UNL1        0.1994
     20 N         142.1950  133.9562  155.2047 N.ar    1  UNL1       -0.1328
     21 C         140.1530  130.7730  154.6627 C.3     1  UNL1        0.0305
     22 C         141.3960  131.5525  154.3511 C.3     1  UNL1        0.1514
     23 C         139.8089  144.4576  161.6067 C.3     1  UNL1        0.0420
     24 C         139.8772  144.1494  163.0731 C.3     1  UNL1        0.0585
     25 C         138.9147  144.6264  164.1201 C.3     1  UNL1        0.0175
     26 C         139.3627  144.0818  165.4441 C.3     1  UNL1        0.0199
     27 C         140.6020  143.2683  165.2153 C.3     1  UNL1        0.0855
     28 N         140.9200  143.3101  163.7500 N.3     1  UNL1       -0.2971
     29 H         140.9068  142.3653  163.3659 H       1  UNL1        0.1233
     30 C         141.3857  142.5409  166.2672 C.3     1  UNL1        0.1470
     31 O         142.8622  142.3385  166.0968 O.3     1  UNL1       -0.3787
     32 H         143.2124  141.8540  166.8606 H       1  UNL1        0.2108
     33 C         140.6928  142.0157  167.4896 C.ar    1  UNL1        0.0055
     34 C         140.6902  142.8216  168.7547 C.ar    1  UNL1       -0.0019
     35 C         139.9973  142.2964  169.9771 C.ar    1  UNL1       -0.0002
     36 C         139.3071  140.9653  169.9343 C.ar    1  UNL1       -0.0000
     37 C         139.3098  140.1594  168.6692 C.ar    1  UNL1       -0.0002
     38 C         140.0026  140.6846  167.4468 C.ar    1  UNL1       -0.0019
@<TRIPOS>BOND
     1    21    22    1
     2    22    16    1
     3    16    17   ar
     4    17    18   ar
     5    18    19   ar
     6    19    15    1
     7    15     7    1
     8     7     8    1
     9     8     9    1
    10     9    10    1
    11    10    11   am
    12    11    12    2
    13    11     1    1
    14     1     2   ar
    15     2     3   ar
    16     3     4   ar
    17     4    23    1
    18    24    23    1
    19    24    25    1
    20    25    26    1
    21    27    26    1
    22    27    30    1
    23    30    31    1
    24    30    33    1
    25    33    34   ar
    26    34    35   ar
    27    35    36   ar
    28    36    37   ar
    29    37    38   ar
    30    27    28    1
    31     4     5   ar
    32     5     6   ar
    33    10    13    1
    34    13    14    1
    35    19    20   ar
    36    20    16   ar
    37    14     7    1
    38     6     1   ar
    39    28    24    1
    40    38    33   ar
    41    31    32    1
    42    28    29    1
@<TRIPOS>MOLECULE
*****
 38 42 0 0 0
SMALL
GASTEIGER

@<TRIPOS>ATOM
      1 C         139.9398  144.9657  162.5786 C.ar    1  UNL1        0.0536
      2 C         138.6834  144.4959  163.2499 C.ar    1  UNL1        0.0042
      3 C         138.7451  143.9028  164.6263 C.ar    1  UNL1       -0.0041
      4 C         140.0633  143.7795  165.3314 C.ar    1  UNL1       -0.0208
      5 C         141.3198  144.2493  164.6601 C.ar    1  UNL1       -0.0041
      6 C         141.2581  144.8424  163.2838 C.ar    1  UNL1        0.0042
      7 N         141.3352  143.1904  157.6643 N.3     1  UNL1       -0.2632
      8 C         141.3969  142.5973  159.0406 C.3     1  UNL1        0.0942
      9 C         140.9112  143.3867  160.2199 C.3     1  UNL1        0.1111
     10 N         140.3638  144.7693  160.0229 N.am    1  UNL1       -0.2732
     11 C         139.8781  145.5588  161.2023 C.2     1  UNL1        0.2491
     12 O         139.3308  146.9414  161.0052 O.2     1  UNL1       -0.2699
     13 C         140.3021  145.3624  158.6465 C.3     1  UNL1        0.1111
     14 C         140.7878  144.5730  157.4672 C.3     1  UNL1        0.0942
     15 C         141.8209  142.4009  156.4849 C.3     1  UNL1        0.1427
     16 N         143.0465  138.7435  156.9167 N.ar    1  UNL1       -0.1512
     17 N         144.3216  139.5038  157.1315 N.ar    1  UNL1       -0.0454
     18 N         144.0177  140.9664  156.9958 N.ar    1  UNL1       -0.1108
     19 C         142.5547  141.1101  156.6973 C.ar    1  UNL1        0.1994
     20 N         141.9545  139.7362  156.6484 N.ar    1  UNL1       -0.1328
     21 C         141.6423  136.6120  156.4321 C.3     1  UNL1        0.0305
     22 C         142.8907  137.2523  156.9623 C.3     1  UNL1        0.1514
     23 C         140.1250  143.1864  166.7077 C.3     1  UNL1        0.0420
     24 C         141.0661  142.0542  166.9950 C.3     1  UNL1        0.0585
     25 C         141.7599  141.7937  168.2992 C.3     1  UNL1        0.0175
     26 C         142.6012  140.5621  168.1387 C.3     1  UNL1        0.0199
     27 C         142.4273  140.0615  166.7355 C.3     1  UNL1        0.0855
     28 N         141.4785  140.9837  166.0286 N.3     1  UNL1       -0.2971
     29 H         140.6581  140.4638  165.7171 H       1  UNL1        0.1233
     30 C         143.0864  138.8514  166.1431 C.3     1  UNL1        0.1470
     31 O         143.9608  137.9806  166.9959 O.3     1  UNL1       -0.3787
     32 H         144.3055  137.2475  166.4625 H       1  UNL1        0.2108
     33 C         142.8711  138.5119  164.6980 C.ar    1  UNL1        0.0055
     34 C         143.8769  138.9372  163.6697 C.ar    1  UNL1       -0.0019
     35 C         143.6616  138.5977  162.2246 C.ar    1  UNL1       -0.0002
     36 C         142.4404  137.8330  161.8077 C.ar    1  UNL1       -0.0000
     37 C         141.4345  137.4077  162.8360 C.ar    1  UNL1       -0.0002
     38 C         141.6499  137.7471  164.2811 C.ar    1  UNL1       -0.0019
@<TRIPOS>BOND
     1    21    22    1
     2    22    16    1
     3    16    17   ar
     4    17    18   ar
     5    18    19   ar
     6    19    15    1
     7    15     7    1
     8     7     8    1
     9     8     9    1
    10     9    10    1
    11    10    11   am
    12    11    12    2
    13    11     1    1
    14     1     2   ar
    15     2     3   ar
    16     3     4   ar
    17     4    23    1
    18    24    23    1
    19    24    25    1
    20    25    26    1
    21    27    26    1
    22    27    30    1
    23    30    31    1
    24    30    33    1
    25    33    34   ar
    26    34    35   ar
    27    35    36   ar
    28    36    37   ar
    29    37    38   ar
    30    27    28    1
    31     4     5   ar
    32     5     6   ar
    33    10    13    1
    34    13    14    1
    35    19    20   ar
    36    20    16   ar
    37    14     7    1
    38     6     1   ar
    39    28    24    1
    40    38    33   ar
    41    31    32    1
    42    28    29    1
