@<TRIPOS>MOLECULE
*****
 42 49 0 0 0
SMALL
GASTEIGER

@<TRIPOS>ATOM
      1 C         139.4839  141.0589  159.4177 C.3     1  UNL1        0.1558
      2 N         139.7317  139.7244  158.7792 N.3     1  UNL1       -0.2809
      3 C         140.2435  139.6502  157.3712 C.3     1  UNL1        0.1166
      4 C         140.5075  140.9104  156.6017 C.3     1  UNL1        0.0511
      5 C         140.2597  142.2449  157.2401 C.2     1  UNL1       -0.0037
      6 C         139.7479  142.3192  158.6482 C.2     1  UNL1        0.0784
      7 N         139.5986  143.7669  159.0113 N.2     1  UNL1       -0.2519
      8 C         140.0181  144.5873  157.8277 C.2     1  UNL1        0.0627
      9 C         140.0809  146.0694  157.6053 C.3     1  UNL1        0.0717
     10 C         140.5522  146.6108  156.2882 C.2     1  UNL1       -0.0198
     11 C         140.9608  145.6701  155.1936 C.2     1  UNL1       -0.0042
     12 C         140.8980  144.1881  155.4160 C.2     1  UNL1        0.0006
     13 C         140.4267  143.6467  156.7331 C.2     1  UNL1        0.0111
     14 H         138.8452  139.2202  158.7973 H       1  UNL1        0.1245
     15 C         139.7312  144.5133  163.4035 C.3     1  UNL1        0.0978
     16 C         139.2114  143.6666  162.2797 C.ar    1  UNL1        0.2369
     17 N         140.0161  142.7079  161.4530 N.ar    1  UNL1       -0.1928
     18 C         139.0978  142.0789  160.4477 C.ar    1  UNL1        0.2023
     19 N         137.7255  142.6486  160.6530 N.ar    1  UNL1       -0.0586
     20 O         137.7957  143.6299  161.7853 O.2     1  UNL1       -0.3373
     21 C         140.4914  138.3156  156.7327 C.ar    1  UNL1        0.1319
     22 N         141.6098  137.3731  157.0655 N.ar    1  UNL1       -0.2282
     23 C         141.4740  136.1643  156.1878 C.ar    1  UNL1        0.1171
     24 C         140.2717  136.3598  155.3125 C.ar    1  UNL1        0.0942
     25 N         139.6644  137.6894  155.6492 N.ar    1  UNL1       -0.3385
     26 H         138.8636  138.0821  155.2324 H       1  UNL1        0.1672
     27 C         142.3813  134.9698  156.1858 C.ar    1  UNL1        0.1006
     28 C         142.3946  134.0401  155.0087 C.ar    1  UNL1        0.0230
     29 C         143.3018  132.8456  155.0066 C.ar    1  UNL1        0.0328
     30 C         144.1957  132.5808  156.1816 C.ar    1  UNL1        0.1592
     31 F         145.1030  131.3862  156.1796 F       1  UNL1       -0.2025
     32 C         144.1825  133.5105  157.3587 C.ar    1  UNL1        0.1284
     33 N         143.2752  134.7050  157.3608 N.ar    1  UNL1       -0.2399
     34 C         139.0858  140.1529  160.5449 C.ar    1  UNL1        0.0423
     35 C         137.7397  139.5184  160.7328 C.ar    1  UNL1        0.1194
     36 N         137.7860  138.6957  161.9863 N.ar    1  UNL1       -0.1679
     37 N         139.1607  138.8218  162.5731 N.ar    1  UNL1       -0.2497
     38 C         139.9640  139.7224  161.6823 C.ar    1  UNL1        0.0944
     39 C         139.6467  138.1630  163.8299 C.3     1  UNL1        0.1274
     40 C         138.8393  138.2637  165.0900 C.3     1  UNL1        0.0244
     41 C         138.1001  137.6029  166.2155 C.3     1  UNL1        0.0021
     42 C         138.1800  139.0992  166.1472 C.3     1  UNL1        0.0021
@<TRIPOS>BOND
     1    15    16    1
     2    16    17   ar
     3    17    18   ar
     4     1    18    1
     5     1    34    1
     6    34    35   ar
     7    35    36   ar
     8    36    37   ar
     9    37    39    1
    10    39    40    1
    11    40    41    1
    12    41    42    1
    13    37    38   ar
    14     1     2    1
    15     2     3    1
    16     3    21    1
    17    21    22   ar
    18    22    23   ar
    19    23    27    1
    20    27    28   ar
    21    28    29   ar
    22    29    30   ar
    23    30    31    1
    24    30    32   ar
    25    32    33   ar
    26    23    24   ar
    27    24    25   ar
    28     3     4    1
    29     4     5    1
    30     5     6    2
    31     6     7    1
    32     7     8    2
    33     8     9    1
    34     9    10    1
    35    10    11    2
    36    11    12    1
    37    12    13    2
    38    18    19   ar
    39    19    20   ar
    40    20    16   ar
    41     6     1    1
    42    13     8    1
    43    38    34   ar
    44    25    21   ar
    45    13     5    1
    46    42    40    1
    47    33    27   ar
    48     2    14    1
    49    25    26    1
@<TRIPOS>MOLECULE
*****
 42 49 0 0 0
SMALL
GASTEIGER

@<TRIPOS>ATOM
      1 C         141.3777  141.0860  160.1105 C.3     1  UNL1        0.1558
      2 N         140.8242  141.9281  158.9994 N.3     1  UNL1       -0.2809
      3 C         140.9477  143.4219  159.0576 C.3     1  UNL1        0.1166
      4 C         141.6248  144.0736  160.2267 C.3     1  UNL1        0.0511
      5 C         142.1783  143.2315  161.3378 C.2     1  UNL1       -0.0037
      6 C         142.0547  141.7377  161.2797 C.2     1  UNL1        0.0784
      7 N         142.6923  141.1715  162.5138 N.2     1  UNL1       -0.2519
      8 C         143.2098  142.3154  163.3346 C.2     1  UNL1        0.0627
      9 C         143.9293  142.3621  164.6499 C.3     1  UNL1        0.0717
     10 C         144.3312  143.6820  165.2384 C.2     1  UNL1       -0.0198
     11 C         144.0135  144.9551  164.5116 C.2     1  UNL1       -0.0042
     12 C         143.2940  144.9084  163.1963 C.2     1  UNL1        0.0006
     13 C         142.8922  143.5885  162.6078 C.2     1  UNL1        0.0111
     14 H         139.8281  141.7172  158.9383 H       1  UNL1        0.1245
     15 C         141.1432  137.0833  163.5462 C.3     1  UNL1        0.0978
     16 C         141.6320  138.0312  162.4914 C.ar    1  UNL1        0.2369
     17 N         140.8766  139.2051  161.9424 N.ar    1  UNL1       -0.1928
     18 C         141.7397  139.8710  160.9123 C.ar    1  UNL1        0.2023
     19 N         143.0286  139.1088  160.8245 N.ar    1  UNL1       -0.0586
     20 O         142.9620  137.9717  161.8005 O.2     1  UNL1       -0.3373
     21 C         140.3942  144.2641  157.9465 C.ar    1  UNL1        0.1319
     22 N         140.2278  145.7546  157.9690 N.ar    1  UNL1       -0.2282
     23 C         139.6407  146.1753  156.6543 C.ar    1  UNL1        0.1171
     24 C         139.4442  144.9448  155.8194 C.ar    1  UNL1        0.0942
     25 N         139.9100  143.7636  156.6180 N.ar    1  UNL1       -0.3385
     26 H         139.8996  142.8246  156.3221 H       1  UNL1        0.1672
     27 C         139.3083  147.5801  156.2463 C.ar    1  UNL1        0.1006
     28 C         139.6783  148.0710  154.8780 C.ar    1  UNL1        0.0230
     29 C         139.3460  149.4756  154.4700 C.ar    1  UNL1        0.0328
     30 C         138.6437  150.3893  155.4301 C.ar    1  UNL1        0.1592
     31 F         138.3114  151.7940  155.0221 F       1  UNL1       -0.2025
     32 C         138.2737  149.8983  156.7984 C.ar    1  UNL1        0.1284
     33 N         138.6060  148.4937  157.2064 N.ar    1  UNL1       -0.2399
     34 C         140.8264  140.0124  159.2198 C.ar    1  UNL1        0.0423
     35 C         139.4159  139.5020  159.2233 C.ar    1  UNL1        0.1194
     36 N         139.3066  138.4348  158.1748 N.ar    1  UNL1       -0.1679
     37 N         140.6494  138.2857  157.5234 N.ar    1  UNL1       -0.2497
     38 C         141.5888  139.2607  158.1692 C.ar    1  UNL1        0.0944
     39 C         140.9928  137.3295  156.4199 C.3     1  UNL1        0.1274
     40 C         142.2828  136.5655  156.4638 C.3     1  UNL1        0.0244
     41 C         143.1543  135.5231  157.0994 C.3     1  UNL1        0.0021
     42 C         143.6459  136.2845  155.9042 C.3     1  UNL1        0.0021
@<TRIPOS>BOND
     1    15    16    1
     2    16    17   ar
     3    17    18   ar
     4     1    18    1
     5     1    34    1
     6    34    35   ar
     7    35    36   ar
     8    36    37   ar
     9    37    39    1
    10    39    40    1
    11    40    41    1
    12    41    42    1
    13    37    38   ar
    14     1     2    1
    15     2     3    1
    16     3    21    1
    17    21    22   ar
    18    22    23   ar
    19    23    27    1
    20    27    28   ar
    21    28    29   ar
    22    29    30   ar
    23    30    31    1
    24    30    32   ar
    25    32    33   ar
    26    23    24   ar
    27    24    25   ar
    28     3     4    1
    29     4     5    1
    30     5     6    2
    31     6     7    1
    32     7     8    2
    33     8     9    1
    34     9    10    1
    35    10    11    2
    36    11    12    1
    37    12    13    2
    38    18    19   ar
    39    19    20   ar
    40    20    16   ar
    41     6     1    1
    42    13     8    1
    43    38    34   ar
    44    25    21   ar
    45    13     5    1
    46    42    40    1
    47    33    27   ar
    48     2    14    1
    49    25    26    1
@<TRIPOS>MOLECULE
*****
 42 49 0 0 0
SMALL
GASTEIGER

@<TRIPOS>ATOM
      1 C         140.6195  140.9175  160.0385 C.3     1  UNL1        0.1558
      2 N         141.0030  139.8943  159.0110 N.3     1  UNL1       -0.2809
      3 C         142.3785  139.2961  159.0253 C.3     1  UNL1        0.1166
      4 C         143.3704  139.7211  160.0672 C.3     1  UNL1        0.0511
      5 C         142.9869  140.7443  161.0948 C.2     1  UNL1       -0.0037
      6 C         141.6114  141.3425  161.0804 C.2     1  UNL1        0.0784
      7 N         141.5204  142.3226  162.2123 N.2     1  UNL1       -0.2519
      8 C         142.8396  142.3301  162.9262 C.2     1  UNL1        0.0627
      9 C         143.3327  143.0991  164.1159 C.3     1  UNL1        0.0717
     10 C         144.7320  142.8927  164.6150 C.2     1  UNL1       -0.0198
     11 C         145.6384  141.9172  163.9242 C.2     1  UNL1       -0.0042
     12 C         145.1453  141.1482  162.7345 C.2     1  UNL1        0.0006
     13 C         143.7460  141.3547  162.2355 C.2     1  UNL1        0.0111
     14 H         140.8826  140.3339  158.0985 H       1  UNL1        0.1245
     15 C         137.4432  143.0951  163.6510 C.3     1  UNL1        0.0978
     16 C         138.3316  142.9143  162.4560 C.ar    1  UNL1        0.2369
     17 N         139.0040  141.6388  162.0423 N.ar    1  UNL1       -0.1928
     18 C         139.7916  141.9133  160.7956 C.ar    1  UNL1        0.2023
     19 N         139.6060  143.3583  160.4388 N.ar    1  UNL1       -0.0586
     20 O         138.7037  143.9770  161.4650 O.2     1  UNL1       -0.3373
     21 C         142.7622  138.2729  157.9977 C.ar    1  UNL1        0.1319
     22 N         142.4571  136.8055  158.0581 N.ar    1  UNL1       -0.2282
     23 C         143.0246  136.1631  156.8271 C.ar    1  UNL1        0.1171
     24 C         143.6803  137.2335  156.0059 C.ar    1  UNL1        0.0942
     25 N         143.5181  138.5374  156.7294 N.ar    1  UNL1       -0.3385
     26 H         143.8496  139.4131  156.4252 H       1  UNL1        0.1672
     27 C         142.9495  134.7060  156.4785 C.ar    1  UNL1        0.1006
     28 C         141.8206  134.1942  155.6337 C.ar    1  UNL1        0.0230
     29 C         141.7454  132.7373  155.2851 C.ar    1  UNL1        0.0328
     30 C         142.7992  131.7921  155.7812 C.ar    1  UNL1        0.1592
     31 F         142.7241  130.3351  155.4326 F       1  UNL1       -0.2025
     32 C         143.9282  132.3040  156.6259 C.ar    1  UNL1        0.1284
     33 N         144.0033  133.7609  156.9745 N.ar    1  UNL1       -0.2399
     34 C         139.3401  140.8384  159.2596 C.ar    1  UNL1        0.0423
     35 C         138.1524  139.9873  159.5990 C.ar    1  UNL1        0.1194
     36 N         137.1020  140.2194  158.5535 N.ar    1  UNL1       -0.1679
     37 N         137.6404  141.2138  157.5681 N.ar    1  UNL1       -0.2497
     38 C         139.0236  141.5964  158.0044 C.ar    1  UNL1        0.0944
     39 C         136.9219  141.7343  156.3587 C.3     1  UNL1        0.1274
     40 C         135.7028  141.0253  155.8476 C.3     1  UNL1        0.0244
     41 C         134.9796  140.3196  154.7391 C.3     1  UNL1        0.0021
     42 C         134.3145  140.5031  156.0710 C.3     1  UNL1        0.0021
@<TRIPOS>BOND
     1    15    16    1
     2    16    17   ar
     3    17    18   ar
     4     1    18    1
     5     1    34    1
     6    34    35   ar
     7    35    36   ar
     8    36    37   ar
     9    37    39    1
    10    39    40    1
    11    40    41    1
    12    41    42    1
    13    37    38   ar
    14     1     2    1
    15     2     3    1
    16     3    21    1
    17    21    22   ar
    18    22    23   ar
    19    23    27    1
    20    27    28   ar
    21    28    29   ar
    22    29    30   ar
    23    30    31    1
    24    30    32   ar
    25    32    33   ar
    26    23    24   ar
    27    24    25   ar
    28     3     4    1
    29     4     5    1
    30     5     6    2
    31     6     7    1
    32     7     8    2
    33     8     9    1
    34     9    10    1
    35    10    11    2
    36    11    12    1
    37    12    13    2
    38    18    19   ar
    39    19    20   ar
    40    20    16   ar
    41     6     1    1
    42    13     8    1
    43    38    34   ar
    44    25    21   ar
    45    13     5    1
    46    42    40    1
    47    33    27   ar
    48     2    14    1
    49    25    26    1
@<TRIPOS>MOLECULE
*****
 42 49 0 0 0
SMALL
GASTEIGER

@<TRIPOS>ATOM
      1 C         141.5489  142.0285  161.6152 C.3     1  UNL1        0.1558
      2 N         141.7958  141.3035  160.3254 N.3     1  UNL1       -0.2809
      3 C         142.3884  139.9256  160.3412 C.3     1  UNL1        0.1166
      4 C         142.7341  139.2728  161.6467 C.3     1  UNL1        0.0511
      5 C         142.4872  139.9978  162.9364 C.2     1  UNL1       -0.0037
      6 C         141.8946  141.3756  162.9206 C.2     1  UNL1        0.0784
      7 N         141.7658  141.8410  164.3408 N.2     1  UNL1       -0.2519
      8 C         142.2788  140.7508  165.2342 C.2     1  UNL1        0.0627
      9 C         142.3975  140.6482  166.7260 C.3     1  UNL1        0.0717
     10 C         142.9620  139.4064  167.3497 C.2     1  UNL1       -0.0198
     11 C         143.4079  138.2671  166.4817 C.2     1  UNL1       -0.0042
     12 C         143.2892  138.3697  164.9900 C.2     1  UNL1        0.0006
     13 C         142.7246  139.6115  164.3662 C.2     1  UNL1        0.0111
     14 H         142.4245  141.8882  159.7747 H       1  UNL1        0.1245
     15 C         138.7314  144.8880  165.0452 C.3     1  UNL1        0.0978
     16 C         139.8367  144.4252  164.1429 C.ar    1  UNL1        0.2369
     17 N         139.8298  143.1789  163.3082 N.ar    1  UNL1       -0.1928
     18 C         141.1316  143.1108  162.5663 C.ar    1  UNL1        0.2023
     19 N         141.9431  144.3150  162.9424 N.ar    1  UNL1       -0.0586
     20 O         141.1427  145.1273  163.9168 O.2     1  UNL1       -0.3373
     21 C         142.6353  139.2006  159.0514 C.ar    1  UNL1        0.1319
     22 N         142.5817  137.7150  158.8510 N.ar    1  UNL1       -0.2282
     23 C         142.8924  137.4301  157.4114 C.ar    1  UNL1        0.1171
     24 C         143.1380  138.7395  156.7222 C.ar    1  UNL1        0.0942
     25 N         142.9791  139.8338  157.7358 N.ar    1  UNL1       -0.3385
     26 H         143.0823  140.7982  157.5672 H       1  UNL1        0.1672
     27 C         142.9478  136.0737  156.7731 C.ar    1  UNL1        0.1006
     28 C         142.6064  135.9136  155.3213 C.ar    1  UNL1        0.0230
     29 C         142.6617  134.5573  154.6830 C.ar    1  UNL1        0.0328
     30 C         143.0585  133.3612  155.4965 C.ar    1  UNL1        0.1592
     31 F         143.1139  132.0049  154.8582 F       1  UNL1       -0.2025
     32 C         143.3999  133.5214  156.9483 C.ar    1  UNL1        0.1284
     33 N         143.3446  134.8776  157.5866 N.ar    1  UNL1       -0.2399
     34 C         141.0583  143.0573  160.6400 C.ar    1  UNL1        0.0423
     35 C         139.6235  143.3957  160.3628 C.ar    1  UNL1        0.1194
     36 N         139.5948  144.4759  159.3223 N.ar    1  UNL1       -0.1679
     37 N         141.0118  144.8050  158.9565 N.ar    1  UNL1       -0.2497
     38 C         141.9163  143.9282  159.7709 C.ar    1  UNL1        0.0944
     39 C         141.4478  145.8306  157.9527 C.3     1  UNL1        0.1274
     40 C         140.5236  146.2332  156.8419 C.3     1  UNL1        0.0244
     41 C         140.0576  146.0898  155.4234 C.3     1  UNL1        0.0021
     42 C         139.3887  147.0740  156.3366 C.3     1  UNL1        0.0021
@<TRIPOS>BOND
     1    15    16    1
     2    16    17   ar
     3    17    18   ar
     4     1    18    1
     5     1    34    1
     6    34    35   ar
     7    35    36   ar
     8    36    37   ar
     9    37    39    1
    10    39    40    1
    11    40    41    1
    12    41    42    1
    13    37    38   ar
    14     1     2    1
    15     2     3    1
    16     3    21    1
    17    21    22   ar
    18    22    23   ar
    19    23    27    1
    20    27    28   ar
    21    28    29   ar
    22    29    30   ar
    23    30    31    1
    24    30    32   ar
    25    32    33   ar
    26    23    24   ar
    27    24    25   ar
    28     3     4    1
    29     4     5    1
    30     5     6    2
    31     6     7    1
    32     7     8    2
    33     8     9    1
    34     9    10    1
    35    10    11    2
    36    11    12    1
    37    12    13    2
    38    18    19   ar
    39    19    20   ar
    40    20    16   ar
    41     6     1    1
    42    13     8    1
    43    38    34   ar
    44    25    21   ar
    45    13     5    1
    46    42    40    1
    47    33    27   ar
    48     2    14    1
    49    25    26    1
@<TRIPOS>MOLECULE
*****
 42 49 0 0 0
SMALL
GASTEIGER

@<TRIPOS>ATOM
      1 C         141.2761  140.2696  159.9764 C.3     1  UNL1        0.1558
      2 N         141.7875  139.0343  159.2964 N.3     1  UNL1       -0.2809
      3 C         142.4022  139.1296  157.9314 C.3     1  UNL1        0.1166
      4 C         142.5055  140.4601  157.2466 C.3     1  UNL1        0.0511
      5 C         141.9941  141.6954  157.9266 C.2     1  UNL1       -0.0037
      6 C         141.3794  141.6001  159.2915 C.2     1  UNL1        0.0784
      7 N         140.9653  142.9796  159.7106 N.2     1  UNL1       -0.2519
      8 C         141.3241  143.9274  158.6047 C.2     1  UNL1        0.0627
      9 C         141.1540  145.4105  158.4593 C.3     1  UNL1        0.0717
     10 C         141.6198  146.1000  157.2113 C.2     1  UNL1       -0.0198
     11 C         142.2556  145.3063  156.1087 C.2     1  UNL1       -0.0042
     12 C         142.4257  143.8231  156.2541 C.2     1  UNL1        0.0006
     13 C         141.9600  143.1337  157.5021 C.2     1  UNL1        0.0111
     14 H         140.9986  138.3923  159.2199 H       1  UNL1        0.1245
     15 C         137.7126  142.8764  162.8723 C.3     1  UNL1        0.0978
     16 C         139.0158  142.3472  162.3513 C.ar    1  UNL1        0.2369
     17 N         139.1872  141.4151  161.1886 N.ar    1  UNL1       -0.1928
     18 C         140.6537  141.1490  161.0202 C.ar    1  UNL1        0.2023
     19 N         141.3887  141.9165  162.0788 N.ar    1  UNL1       -0.0586
     20 O         140.3764  142.6570  162.9015 O.2     1  UNL1       -0.3373
     21 C         142.9137  137.8942  157.2513 C.ar    1  UNL1        0.1319
     22 N         142.6292  136.4799  157.6619 N.ar    1  UNL1       -0.2282
     23 C         143.3391  135.5679  156.7057 C.ar    1  UNL1        0.1171
     24 C         144.0623  136.4187  155.7041 C.ar    1  UNL1        0.0942
     25 N         143.7994  137.8564  156.0414 N.ar    1  UNL1       -0.3385
     26 H         144.1472  138.6381  155.5542 H       1  UNL1        0.1672
     27 C         143.3277  134.0684  156.7442 C.ar    1  UNL1        0.1006
     28 C         142.2824  133.3066  155.9847 C.ar    1  UNL1        0.0230
     29 C         142.2710  131.8071  156.0232 C.ar    1  UNL1        0.0328
     30 C         143.3049  131.0695  156.8212 C.ar    1  UNL1        0.1592
     31 F         143.2935  129.5700  156.8597 F       1  UNL1       -0.2025
     32 C         144.3502  131.8314  157.5807 C.ar    1  UNL1        0.1284
     33 N         144.3616  133.3308  157.5422 N.ar    1  UNL1       -0.2399
     34 C         140.9566  139.2445  161.0238 C.ar    1  UNL1        0.0423
     35 C         139.7858  138.3069  161.0117 C.ar    1  UNL1        0.1194
     36 N         139.8575  137.4599  162.2477 N.ar    1  UNL1       -0.1679
     37 N         141.0726  137.8741  163.0236 N.ar    1  UNL1       -0.2497
     38 C         141.7519  138.9770  162.2672 C.ar    1  UNL1        0.0944
     39 C         141.5283  137.2882  164.3270 C.3     1  UNL1        0.1274
     40 C         142.2992  138.1310  165.2994 C.3     1  UNL1        0.0244
     41 C         142.3425  139.2428  166.3053 C.3     1  UNL1        0.0021
     42 C         143.5910  138.4788  165.9777 C.3     1  UNL1        0.0021
@<TRIPOS>BOND
     1    15    16    1
     2    16    17   ar
     3    17    18   ar
     4     1    18    1
     5     1    34    1
     6    34    35   ar
     7    35    36   ar
     8    36    37   ar
     9    37    39    1
    10    39    40    1
    11    40    41    1
    12    41    42    1
    13    37    38   ar
    14     1     2    1
    15     2     3    1
    16     3    21    1
    17    21    22   ar
    18    22    23   ar
    19    23    27    1
    20    27    28   ar
    21    28    29   ar
    22    29    30   ar
    23    30    31    1
    24    30    32   ar
    25    32    33   ar
    26    23    24   ar
    27    24    25   ar
    28     3     4    1
    29     4     5    1
    30     5     6    2
    31     6     7    1
    32     7     8    2
    33     8     9    1
    34     9    10    1
    35    10    11    2
    36    11    12    1
    37    12    13    2
    38    18    19   ar
    39    19    20   ar
    40    20    16   ar
    41     6     1    1
    42    13     8    1
    43    38    34   ar
    44    25    21   ar
    45    13     5    1
    46    42    40    1
    47    33    27   ar
    48     2    14    1
    49    25    26    1
@<TRIPOS>MOLECULE
*****
 42 49 0 0 0
SMALL
GASTEIGER

@<TRIPOS>ATOM
      1 C         141.2644  142.2478  159.1025 C.3     1  UNL1        0.1558
      2 N         139.9597  141.9049  158.4467 N.3     1  UNL1       -0.2809
      3 C         139.9236  141.5470  156.9905 C.3     1  UNL1        0.1166
      4 C         141.1921  141.5320  156.1901 C.3     1  UNL1        0.0511
      5 C         142.4968  141.8749  156.8459 C.2     1  UNL1       -0.0037
      6 C         142.5330  142.2328  158.3021 C.2     1  UNL1        0.0784
      7 N         143.9571  142.5235  158.6727 N.2     1  UNL1       -0.2519
      8 C         144.8011  142.3452  157.4456 C.2     1  UNL1        0.0627
      9 C         146.2748  142.4961  157.2104 C.3     1  UNL1        0.0717
     10 C         146.8460  142.2461  155.8461 C.2     1  UNL1       -0.0198
     11 C         145.9435  141.8452  154.7171 C.2     1  UNL1       -0.0042
     12 C         144.4698  141.6944  154.9523 C.2     1  UNL1        0.0006
     13 C         143.8986  141.9443  156.3165 C.2     1  UNL1        0.0111
     14 H         139.3486  142.7127  158.5666 H       1  UNL1        0.1245
     15 C         144.6618  142.0178  163.1380 C.3     1  UNL1        0.0978
     16 C         143.8088  142.5381  162.0193 C.ar    1  UNL1        0.2369
     17 N         142.9046  141.7196  161.1460 N.ar    1  UNL1       -0.1928
     18 C         142.2472  142.6437  160.1644 C.ar    1  UNL1        0.2023
     19 N         142.7450  144.0334  160.4309 N.ar    1  UNL1       -0.0586
     20 O         143.7101  143.9681  161.5774 O.2     1  UNL1       -0.3373
     21 C         138.6188  141.2040  156.3346 C.ar    1  UNL1        0.1319
     22 N         137.2854  141.1179  157.0160 N.ar    1  UNL1       -0.2282
     23 C         136.2609  140.7476  155.9848 C.ar    1  UNL1        0.1171
     24 C         136.9613  140.6050  154.6660 C.ar    1  UNL1        0.0942
     25 N         138.4186  140.8871  154.8822 N.ar    1  UNL1       -0.3385
     26 H         139.1204  140.8677  154.1921 H       1  UNL1        0.1672
     27 C         134.7937  140.5540  156.2294 C.ar    1  UNL1        0.1006
     28 C         133.7904  141.3039  155.4041 C.ar    1  UNL1        0.0230
     29 C         132.3232  141.1104  155.6487 C.ar    1  UNL1        0.0328
     30 C         131.8593  140.1669  156.7185 C.ar    1  UNL1        0.1592
     31 F         130.3920  139.9733  156.9631 F       1  UNL1       -0.2025
     32 C         132.8626  139.4170  157.5438 C.ar    1  UNL1        0.1284
     33 N         134.3297  139.6106  157.2992 N.ar    1  UNL1       -0.2399
     34 C         140.3372  142.4003  160.2717 C.ar    1  UNL1        0.0423
     35 C         139.6944  141.2830  161.0388 C.ar    1  UNL1        0.1194
     36 N         138.8499  141.8892  162.1203 N.ar    1  UNL1       -0.1679
     37 N         138.9708  143.3810  162.0216 N.ar    1  UNL1       -0.2497
     38 C         139.8901  143.6970  160.8791 C.ar    1  UNL1        0.0944
     39 C         138.2918  144.3813  162.9094 C.3     1  UNL1        0.1274
     40 C         138.6451  144.4535  164.3654 C.3     1  UNL1        0.0244
     41 C         138.4407  145.0570  165.7233 C.3     1  UNL1        0.0021
     42 C         139.4614  143.9750  165.5294 C.3     1  UNL1        0.0021
@<TRIPOS>BOND
     1    15    16    1
     2    16    17   ar
     3    17    18   ar
     4     1    18    1
     5     1    34    1
     6    34    35   ar
     7    35    36   ar
     8    36    37   ar
     9    37    39    1
    10    39    40    1
    11    40    41    1
    12    41    42    1
    13    37    38   ar
    14     1     2    1
    15     2     3    1
    16     3    21    1
    17    21    22   ar
    18    22    23   ar
    19    23    27    1
    20    27    28   ar
    21    28    29   ar
    22    29    30   ar
    23    30    31    1
    24    30    32   ar
    25    32    33   ar
    26    23    24   ar
    27    24    25   ar
    28     3     4    1
    29     4     5    1
    30     5     6    2
    31     6     7    1
    32     7     8    2
    33     8     9    1
    34     9    10    1
    35    10    11    2
    36    11    12    1
    37    12    13    2
    38    18    19   ar
    39    19    20   ar
    40    20    16   ar
    41     6     1    1
    42    13     8    1
    43    38    34   ar
    44    25    21   ar
    45    13     5    1
    46    42    40    1
    47    33    27   ar
    48     2    14    1
    49    25    26    1
@<TRIPOS>MOLECULE
*****
 42 49 0 0 0
SMALL
GASTEIGER

@<TRIPOS>ATOM
      1 C         142.4813  139.7916  159.6269 C.3     1  UNL1        0.1558
      2 N         143.1599  140.2666  158.3764 N.3     1  UNL1       -0.2809
      3 C         144.0816  141.4490  158.4261 C.3     1  UNL1        0.1166
      4 C         144.3247  142.1564  159.7263 C.3     1  UNL1        0.0511
      5 C         143.6461  141.6814  160.9768 C.2     1  UNL1       -0.0037
      6 C         142.7244  140.4990  160.9271 C.2     1  UNL1        0.0784
      7 N         142.2005  140.2613  162.3124 N.2     1  UNL1       -0.2519
      8 C         142.7983  141.2967  163.2182 C.2     1  UNL1        0.0627
      9 C         142.6445  141.5537  164.6880 C.3     1  UNL1        0.0717
     10 C         143.3842  142.6884  165.3323 C.2     1  UNL1       -0.0198
     11 C         144.2777  143.5662  164.5068 C.2     1  UNL1       -0.0042
     12 C         144.4314  143.3091  163.0371 C.2     1  UNL1        0.0006
     13 C         143.6917  142.1744  162.3928 C.2     1  UNL1        0.0111
     14 H         142.4224  140.4960  157.7101 H       1  UNL1        0.1245
     15 C         138.3289  138.0623  162.3922 C.3     1  UNL1        0.0978
     16 C         139.7051  138.1772  161.8067 C.ar    1  UNL1        0.2369
     17 N         140.1757  139.2448  160.8639 N.ar    1  UNL1       -0.1928
     18 C         141.6136  138.9721  160.5356 C.ar    1  UNL1        0.2023
     19 N         142.0318  137.7361  161.2754 N.ar    1  UNL1       -0.0586
     20 O         140.8521  137.2448  162.0609 O.2     1  UNL1       -0.3373
     21 C         144.7602  141.9241  157.1755 C.ar    1  UNL1        0.1319
     22 N         146.2304  141.8494  156.8874 N.ar    1  UNL1       -0.2282
     23 C         146.4667  142.4363  155.5274 C.ar    1  UNL1        0.1171
     24 C         145.1425  142.8738  154.9750 C.ar    1  UNL1        0.0942
     25 N         144.0879  142.5572  155.9935 N.ar    1  UNL1       -0.3385
     26 H         143.1237  142.7339  155.9023 H       1  UNL1        0.1672
     27 C         147.7941  142.5635  154.8404 C.ar    1  UNL1        0.1006
     28 C         147.9577  143.5190  153.6958 C.ar    1  UNL1        0.0230
     29 C         149.2850  143.6462  153.0088 C.ar    1  UNL1        0.0328
     30 C         150.4488  142.8178  153.4665 C.ar    1  UNL1        0.1592
     31 F         151.7762  142.9450  152.7796 F       1  UNL1       -0.2025
     32 C         150.2852  141.8623  154.6112 C.ar    1  UNL1        0.1284
     33 N         148.9578  141.7351  155.2981 N.ar    1  UNL1       -0.2399
     34 C         141.9369  138.7997  158.6423 C.ar    1  UNL1        0.0423
     35 C         140.5220  138.7329  158.1487 C.ar    1  UNL1        0.1194
     36 N         140.4225  137.5921  157.1797 N.ar    1  UNL1       -0.1679
     37 N         141.7759  136.9539  157.0744 N.ar    1  UNL1       -0.2497
     38 C         142.7118  137.7002  157.9784 C.ar    1  UNL1        0.0944
     39 C         142.1309  135.7763  156.2160 C.3     1  UNL1        0.1274
     40 C         143.0126  134.6910  156.7590 C.3     1  UNL1        0.0244
     41 C         143.6621  134.0066  157.9251 C.3     1  UNL1        0.0021
     42 C         143.8901  133.4955  156.5334 C.3     1  UNL1        0.0021
@<TRIPOS>BOND
     1    15    16    1
     2    16    17   ar
     3    17    18   ar
     4     1    18    1
     5     1    34    1
     6    34    35   ar
     7    35    36   ar
     8    36    37   ar
     9    37    39    1
    10    39    40    1
    11    40    41    1
    12    41    42    1
    13    37    38   ar
    14     1     2    1
    15     2     3    1
    16     3    21    1
    17    21    22   ar
    18    22    23   ar
    19    23    27    1
    20    27    28   ar
    21    28    29   ar
    22    29    30   ar
    23    30    31    1
    24    30    32   ar
    25    32    33   ar
    26    23    24   ar
    27    24    25   ar
    28     3     4    1
    29     4     5    1
    30     5     6    2
    31     6     7    1
    32     7     8    2
    33     8     9    1
    34     9    10    1
    35    10    11    2
    36    11    12    1
    37    12    13    2
    38    18    19   ar
    39    19    20   ar
    40    20    16   ar
    41     6     1    1
    42    13     8    1
    43    38    34   ar
    44    25    21   ar
    45    13     5    1
    46    42    40    1
    47    33    27   ar
    48     2    14    1
    49    25    26    1
@<TRIPOS>MOLECULE
*****
 42 49 0 0 0
SMALL
GASTEIGER

@<TRIPOS>ATOM
      1 C         142.4328  140.9608  159.9397 C.3     1  UNL1        0.1558
      2 N         142.8164  139.6878  159.2452 N.3     1  UNL1       -0.2809
      3 C         142.8019  139.6171  157.7469 C.3     1  UNL1        0.1166
      4 C         142.4039  140.8194  156.9431 C.3     1  UNL1        0.0511
      5 C         142.0203  142.0924  157.6376 C.2     1  UNL1       -0.0037
      6 C         142.0348  142.1631  159.1359 C.2     1  UNL1        0.0784
      7 N         141.6101  143.5442  159.5388 N.2     1  UNL1       -0.2519
      8 C         141.3332  144.3270  158.2896 C.2     1  UNL1        0.0627
      9 C         140.8829  145.7409  158.0703 C.3     1  UNL1        0.0717
     10 C         140.6862  146.2575  156.6759 C.2     1  UNL1       -0.0198
     11 C         140.9397  145.3603  155.5009 C.2     1  UNL1       -0.0042
     12 C         141.3900  143.9464  155.7202 C.2     1  UNL1        0.0006
     13 C         141.5867  143.4298  157.1146 C.2     1  UNL1        0.0111
     14 H         142.1784  138.9659  159.5802 H       1  UNL1        0.1245
     15 C         143.0788  144.6220  163.6891 C.3     1  UNL1        0.0978
     16 C         142.4507  143.6166  162.7703 C.ar    1  UNL1        0.2369
     17 N         143.1650  142.8062  161.7295 N.ar    1  UNL1       -0.1928
     18 C         142.1538  141.9337  161.0468 C.ar    1  UNL1        0.2023
     19 N         140.8146  142.2047  161.6656 N.ar    1  UNL1       -0.0586
     20 O         140.9981  143.2448  162.7307 O.2     1  UNL1       -0.3373
     21 C         143.1855  138.3441  157.0524 C.ar    1  UNL1        0.1319
     22 N         142.7224  136.9654  157.4195 N.ar    1  UNL1       -0.2282
     23 C         143.3501  135.9955  156.4629 C.ar    1  UNL1        0.1171
     24 C         144.2012  136.7747  155.5045 C.ar    1  UNL1        0.0942
     25 N         144.0994  138.2262  155.8689 N.ar    1  UNL1       -0.3385
     26 H         144.5529  138.9708  155.4115 H       1  UNL1        0.1672
     27 C         143.1601  134.5075  156.4644 C.ar    1  UNL1        0.1006
     28 C         142.0304  133.8949  155.6908 C.ar    1  UNL1        0.0230
     29 C         141.8404  132.4071  155.6922 C.ar    1  UNL1        0.0328
     30 C         142.7801  131.5318  156.4673 C.ar    1  UNL1        0.1592
     31 F         142.5901  130.0438  156.4688 F       1  UNL1       -0.2025
     32 C         143.9098  132.1444  157.2409 C.ar    1  UNL1        0.1284
     33 N         144.0998  133.6322  157.2394 N.ar    1  UNL1       -0.2399
     34 C         142.7339  140.0964  161.1279 C.ar    1  UNL1        0.0423
     35 C         144.0998  139.7353  161.6321 C.ar    1  UNL1        0.1194
     36 N         143.9320  138.8570  162.8365 N.ar    1  UNL1       -0.1679
     37 N         142.4626  138.6753  163.0767 N.ar    1  UNL1       -0.2497
     38 C         141.7221  139.4413  162.0208 C.ar    1  UNL1        0.0944
     39 C         141.8424  137.8693  164.1792 C.3     1  UNL1        0.1274
     40 C         140.3504  137.7421  164.2675 C.3     1  UNL1        0.0244
     41 C         139.0140  137.6323  163.5953 C.3     1  UNL1        0.0021
     42 C         139.1027  137.6317  165.0926 C.3     1  UNL1        0.0021
@<TRIPOS>BOND
     1    15    16    1
     2    16    17   ar
     3    17    18   ar
     4     1    18    1
     5     1    34    1
     6    34    35   ar
     7    35    36   ar
     8    36    37   ar
     9    37    39    1
    10    39    40    1
    11    40    41    1
    12    41    42    1
    13    37    38   ar
    14     1     2    1
    15     2     3    1
    16     3    21    1
    17    21    22   ar
    18    22    23   ar
    19    23    27    1
    20    27    28   ar
    21    28    29   ar
    22    29    30   ar
    23    30    31    1
    24    30    32   ar
    25    32    33   ar
    26    23    24   ar
    27    24    25   ar
    28     3     4    1
    29     4     5    1
    30     5     6    2
    31     6     7    1
    32     7     8    2
    33     8     9    1
    34     9    10    1
    35    10    11    2
    36    11    12    1
    37    12    13    2
    38    18    19   ar
    39    19    20   ar
    40    20    16   ar
    41     6     1    1
    42    13     8    1
    43    38    34   ar
    44    25    21   ar
    45    13     5    1
    46    42    40    1
    47    33    27   ar
    48     2    14    1
    49    25    26    1
@<TRIPOS>MOLECULE
*****
 42 49 0 0 0
SMALL
GASTEIGER

@<TRIPOS>ATOM
      1 C         140.5866  140.5175  159.4881 C.3     1  UNL1        0.1558
      2 N         141.2502  140.5518  160.8328 N.3     1  UNL1       -0.2809
      3 C         142.2840  139.5238  161.1855 C.3     1  UNL1        0.1166
      4 C         142.6541  138.4614  160.1933 C.3     1  UNL1        0.0511
      5 C         141.9905  138.4270  158.8486 C.2     1  UNL1       -0.0037
      6 C         140.9568  139.4551  158.4959 C.2     1  UNL1        0.0784
      7 N         140.4762  139.1706  157.1038 N.2     1  UNL1       -0.2519
      8 C         141.2130  137.9667  156.5960 C.2     1  UNL1        0.0627
      9 C         141.1526  137.2296  155.2911 C.3     1  UNL1        0.0717
     10 C         142.0281  136.0329  155.0645 C.2     1  UNL1       -0.0198
     11 C         142.9640  135.5733  156.1428 C.2     1  UNL1       -0.0042
     12 C         143.0244  136.3105  157.4478 C.2     1  UNL1        0.0006
     13 C         142.1489  137.5071  157.6744 C.2     1  UNL1        0.0111
     14 H         140.5088  140.4747  161.5291 H       1  UNL1        0.1245
     15 C         136.3291  141.0210  156.4057 C.3     1  UNL1        0.0978
     16 C         137.7289  141.1295  156.9337 C.ar    1  UNL1        0.2369
     17 N         138.2328  140.5487  158.2217 N.ar    1  UNL1       -0.1928
     18 C         139.6857  140.8980  158.3506 C.ar    1  UNL1        0.2023
     19 N         140.0800  141.6946  157.1423 N.ar    1  UNL1       -0.0586
     20 O         138.8705  141.8377  156.2666 O.2     1  UNL1       -0.3373
     21 C         142.9476  139.5580  162.5303 C.ar    1  UNL1        0.1319
     22 N         142.3075  139.9824  163.8187 N.ar    1  UNL1       -0.2282
     23 C         143.3321  139.8606  164.9075 C.ar    1  UNL1        0.1171
     24 C         144.6054  139.3610  164.2919 C.ar    1  UNL1        0.0942
     25 N         144.3678  139.1740  162.8227 N.ar    1  UNL1       -0.3385
     26 H         145.0281  138.8552  162.1657 H       1  UNL1        0.1672
     27 C         143.1204  140.1821  166.3573 C.ar    1  UNL1        0.1006
     28 C         142.8898  139.0766  167.3447 C.ar    1  UNL1        0.0230
     29 C         142.6782  139.3980  168.7945 C.ar    1  UNL1        0.0328
     30 C         142.6972  140.8248  169.2569 C.ar    1  UNL1        0.1592
     31 F         142.4855  141.1462  170.7067 F       1  UNL1       -0.2025
     32 C         142.9277  141.9302  168.2695 C.ar    1  UNL1        0.1284
     33 N         143.1394  141.6088  166.8198 N.ar    1  UNL1       -0.2399
     34 C         139.9035  141.7120  160.0851 C.ar    1  UNL1        0.0423
     35 C         139.9408  143.1107  159.5445 C.ar    1  UNL1        0.1194
     36 N         139.1235  143.9807  160.4530 N.ar    1  UNL1       -0.1679
     37 N         138.5812  143.1197  161.5550 N.ar    1  UNL1       -0.2497
     38 C         139.0633  141.7176  161.3277 C.ar    1  UNL1        0.0944
     39 C         137.7099  143.5800  162.6858 C.3     1  UNL1        0.1274
     40 C         138.3276  144.1973  163.9054 C.3     1  UNL1        0.0244
     41 C         138.1990  144.7071  165.3103 C.3     1  UNL1        0.0021
     42 C         139.5261  144.7566  164.6130 C.3     1  UNL1        0.0021
@<TRIPOS>BOND
     1    15    16    1
     2    16    17   ar
     3    17    18   ar
     4     1    18    1
     5     1    34    1
     6    34    35   ar
     7    35    36   ar
     8    36    37   ar
     9    37    39    1
    10    39    40    1
    11    40    41    1
    12    41    42    1
    13    37    38   ar
    14     1     2    1
    15     2     3    1
    16     3    21    1
    17    21    22   ar
    18    22    23   ar
    19    23    27    1
    20    27    28   ar
    21    28    29   ar
    22    29    30   ar
    23    30    31    1
    24    30    32   ar
    25    32    33   ar
    26    23    24   ar
    27    24    25   ar
    28     3     4    1
    29     4     5    1
    30     5     6    2
    31     6     7    1
    32     7     8    2
    33     8     9    1
    34     9    10    1
    35    10    11    2
    36    11    12    1
    37    12    13    2
    38    18    19   ar
    39    19    20   ar
    40    20    16   ar
    41     6     1    1
    42    13     8    1
    43    38    34   ar
    44    25    21   ar
    45    13     5    1
    46    42    40    1
    47    33    27   ar
    48     2    14    1
    49    25    26    1
