@<TRIPOS>MOLECULE
*****
 23 25 0 0 0
SMALL
GASTEIGER

@<TRIPOS>ATOM
      1 C         140.1613  140.7436  167.3987 C.ar    1  UNL1        0.0880
      2 C         139.4333  140.1027  168.5429 C.ar    1  UNL1        0.0076
      3 C         139.2990  140.8300  169.8479 C.ar    1  UNL1        0.0003
      4 C         139.8927  142.1981  170.0087 C.ar    1  UNL1        0.0031
      5 C         140.6207  142.8389  168.8644 C.ar    1  UNL1        0.0376
      6 C         140.7550  142.1117  167.5595 C.ar    1  UNL1        0.1496
      7 C         142.6307  139.1407  166.8219 C.3     1  UNL1        0.1151
      8 N         141.5303  139.2149  165.8052 N.am    1  UNL1       -0.2745
      9 C         140.2956  140.0163  166.0936 C.2     1  UNL1        0.2520
     10 O         139.1952  140.0905  165.0770 O.2     1  UNL1       -0.2698
     11 C         141.6646  138.4876  164.5002 C.3     1  UNL1        0.0928
     12 C         142.5040  138.9175  163.3337 C.3     1  UNL1        0.0383
     13 C         142.3413  137.8984  162.2450 C.3     1  UNL1        0.0704
     14 N         141.4014  136.8388  162.7388 N.3     1  UNL1       -0.2960
     15 C         140.9832  137.2030  164.1325 C.3     1  UNL1        0.0887
     16 H         141.8719  135.9338  162.7439 H       1  UNL1        0.1233
     17 O         141.4830  142.7525  166.4151 O.3     1  UNL1       -0.4533
     18 C         140.7199  143.5192  165.3759 C.ar    1  UNL1        0.1453
     19 C         139.2404  143.7166  165.5254 C.ar    1  UNL1        0.0375
     20 C         138.4774  144.4833  164.4862 C.ar    1  UNL1        0.0031
     21 C         139.1937  145.0524  163.2975 C.ar    1  UNL1        0.0002
     22 C         140.6731  144.8549  163.1480 C.ar    1  UNL1        0.0031
     23 C         141.4362  144.0883  164.1873 C.ar    1  UNL1        0.0375
@<TRIPOS>BOND
     1     7     8    1
     2     8     9   am
     3     9    10    2
     4     9     1    1
     5     1     2   ar
     6     2     3   ar
     7     3     4   ar
     8     4     5   ar
     9     5     6   ar
    10     6    17    1
    11    17    18    1
    12    18    19   ar
    13    19    20   ar
    14    20    21   ar
    15    21    22   ar
    16    22    23   ar
    17    11     8    1
    18    11    12    1
    19    12    13    1
    20    13    14    1
    21    14    15    1
    22     6     1   ar
    23    23    18   ar
    24    15    11    1
    25    14    16    1
@<TRIPOS>MOLECULE
*****
 23 25 0 0 0
SMALL
GASTEIGER

@<TRIPOS>ATOM
      1 C         138.9614  139.0983  165.4948 C.ar    1  UNL1        0.0880
      2 C         139.3198  137.7469  164.9514 C.ar    1  UNL1        0.0076
      3 C         139.0842  137.4343  163.5034 C.ar    1  UNL1        0.0003
      4 C         138.4903  138.4731  162.5989 C.ar    1  UNL1        0.0031
      5 C         138.1319  139.8244  163.1423 C.ar    1  UNL1        0.0376
      6 C         138.3675  140.1370  164.5903 C.ar    1  UNL1        0.1496
      7 C         141.5296  140.3906  166.3519 C.3     1  UNL1        0.1151
      8 N         140.4811  140.0571  167.3714 N.am    1  UNL1       -0.2745
      9 C         139.1970  139.4110  166.9429 C.2     1  UNL1        0.2520
     10 O         138.1485  139.0775  167.9624 O.2     1  UNL1       -0.2698
     11 C         140.7167  140.3698  168.8195 C.3     1  UNL1        0.0928
     12 C         140.1731  141.5519  169.5659 C.3     1  UNL1        0.0383
     13 C         140.6576  141.4680  170.9831 C.3     1  UNL1        0.0704
     14 N         141.5007  140.2340  171.1124 N.3     1  UNL1       -0.2960
     15 C         141.5372  139.5553  169.7752 C.3     1  UNL1        0.0887
     16 H         141.0937  139.6080  171.8073 H       1  UNL1        0.1233
     17 O         138.0091  141.4884  165.1338 O.3     1  UNL1       -0.4533
     18 C         138.5666  142.7257  164.4949 C.ar    1  UNL1        0.1453
     19 C         139.9040  143.2533  164.9228 C.ar    1  UNL1        0.0375
     20 C         140.4615  144.4906  164.2839 C.ar    1  UNL1        0.0031
     21 C         139.6817  145.2003  163.2170 C.ar    1  UNL1        0.0002
     22 C         138.3444  144.6727  162.7890 C.ar    1  UNL1        0.0031
     23 C         137.7868  143.4354  163.4280 C.ar    1  UNL1        0.0375
@<TRIPOS>BOND
     1     7     8    1
     2     8     9   am
     3     9    10    2
     4     9     1    1
     5     1     2   ar
     6     2     3   ar
     7     3     4   ar
     8     4     5   ar
     9     5     6   ar
    10     6    17    1
    11    17    18    1
    12    18    19   ar
    13    19    20   ar
    14    20    21   ar
    15    21    22   ar
    16    22    23   ar
    17    11     8    1
    18    11    12    1
    19    12    13    1
    20    13    14    1
    21    14    15    1
    22     6     1   ar
    23    23    18   ar
    24    15    11    1
    25    14    16    1
@<TRIPOS>MOLECULE
*****
 23 25 0 0 0
SMALL
GASTEIGER

@<TRIPOS>ATOM
      1 C         140.0400  139.2455  165.4009 C.ar    1  UNL1        0.0880
      2 C         139.5721  137.9287  164.8557 C.ar    1  UNL1        0.0076
      3 C         138.4275  137.2112  165.5076 C.ar    1  UNL1        0.0003
      4 C         137.7508  137.8104  166.7047 C.ar    1  UNL1        0.0031
      5 C         138.2187  139.1271  167.2499 C.ar    1  UNL1        0.0376
      6 C         139.3633  139.8446  166.5980 C.ar    1  UNL1        0.1496
      7 C         142.8588  138.6344  166.2261 C.3     1  UNL1        0.1151
      8 N         142.5940  139.6576  165.1616 N.am    1  UNL1       -0.2745
      9 C         141.1847  139.9631  164.7491 C.2     1  UNL1        0.2520
     10 O         140.9198  140.9862  163.6846 O.2     1  UNL1       -0.2698
     11 C         143.7387  140.3752  164.5098 C.3     1  UNL1        0.0928
     12 C         144.2103  141.7614  164.8353 C.3     1  UNL1        0.0383
     13 C         145.3757  142.0756  163.9446 C.3     1  UNL1        0.0704
     14 N         145.6243  140.8835  163.0688 N.3     1  UNL1       -0.2960
     15 C         144.6126  139.8326  163.4180 C.3     1  UNL1        0.0887
     16 H         146.5655  140.5252  163.2307 H       1  UNL1        0.1233
     17 O         139.8312  141.1614  167.1433 O.3     1  UNL1       -0.4533
     18 C         141.0106  141.2135  168.0687 C.ar    1  UNL1        0.1453
     19 C         142.0591  142.2710  167.8886 C.ar    1  UNL1        0.0375
     20 C         143.2384  142.3231  168.8141 C.ar    1  UNL1        0.0031
     21 C         143.3693  141.3176  169.9195 C.ar    1  UNL1        0.0002
     22 C         142.3208  140.2602  170.0995 C.ar    1  UNL1        0.0031
     23 C         141.1415  140.2081  169.1741 C.ar    1  UNL1        0.0375
@<TRIPOS>BOND
     1     7     8    1
     2     8     9   am
     3     9    10    2
     4     9     1    1
     5     1     2   ar
     6     2     3   ar
     7     3     4   ar
     8     4     5   ar
     9     5     6   ar
    10     6    17    1
    11    17    18    1
    12    18    19   ar
    13    19    20   ar
    14    20    21   ar
    15    21    22   ar
    16    22    23   ar
    17    11     8    1
    18    11    12    1
    19    12    13    1
    20    13    14    1
    21    14    15    1
    22     6     1   ar
    23    23    18   ar
    24    15    11    1
    25    14    16    1
@<TRIPOS>MOLECULE
*****
 23 25 0 0 0
SMALL
GASTEIGER

@<TRIPOS>ATOM
      1 C         140.8369  141.9021  167.8562 C.ar    1  UNL1        0.0880
      2 C         140.3372  142.8824  168.8757 C.ar    1  UNL1        0.0076
      3 C         141.2664  143.4071  169.9299 C.ar    1  UNL1        0.0003
      4 C         142.6951  142.9516  169.9646 C.ar    1  UNL1        0.0031
      5 C         143.1947  141.9713  168.9451 C.ar    1  UNL1        0.0376
      6 C         142.2656  141.4466  167.8909 C.ar    1  UNL1        0.1496
      7 C         140.4316  143.4410  165.3130 C.3     1  UNL1        0.1151
      8 N         139.7051  142.1468  165.5304 N.am    1  UNL1       -0.2745
      9 C         139.9077  141.3774  166.8019 C.2     1  UNL1        0.2520
     10 O         139.1812  140.0832  167.0193 O.2     1  UNL1       -0.2698
     11 C         138.7760  141.6220  164.4761 C.3     1  UNL1        0.0928
     12 C         138.9991  140.4021  163.6323 C.3     1  UNL1        0.0383
     13 C         137.8217  140.2511  162.7152 C.3     1  UNL1        0.0704
     14 N         136.8709  141.3778  162.9923 N.3     1  UNL1       -0.2960
     15 C         137.4607  142.2250  164.0806 C.3     1  UNL1        0.0887
     16 H         135.9706  141.0048  163.2936 H       1  UNL1        0.1233
     17 O         142.7652  140.4663  166.8713 O.3     1  UNL1       -0.4533
     18 C         143.6143  140.9396  165.7289 C.ar    1  UNL1        0.1453
     19 C         144.2244  139.9454  164.7857 C.ar    1  UNL1        0.0375
     20 C         145.0735  140.4187  163.6434 C.ar    1  UNL1        0.0031
     21 C         145.3125  141.8861  163.4442 C.ar    1  UNL1        0.0002
     22 C         144.7024  142.8802  164.3873 C.ar    1  UNL1        0.0031
     23 C         143.8533  142.4069  165.5297 C.ar    1  UNL1        0.0375
@<TRIPOS>BOND
     1     7     8    1
     2     8     9   am
     3     9    10    2
     4     9     1    1
     5     1     2   ar
     6     2     3   ar
     7     3     4   ar
     8     4     5   ar
     9     5     6   ar
    10     6    17    1
    11    17    18    1
    12    18    19   ar
    13    19    20   ar
    14    20    21   ar
    15    21    22   ar
    16    22    23   ar
    17    11     8    1
    18    11    12    1
    19    12    13    1
    20    13    14    1
    21    14    15    1
    22     6     1   ar
    23    23    18   ar
    24    15    11    1
    25    14    16    1
@<TRIPOS>MOLECULE
*****
 23 25 0 0 0
SMALL
GASTEIGER

@<TRIPOS>ATOM
      1 C         142.5409  138.3819  164.9708 C.ar    1  UNL1        0.0880
      2 C         141.3725  137.4806  164.7019 C.ar    1  UNL1        0.0076
      3 C         141.0075  137.1268  163.2907 C.ar    1  UNL1        0.0003
      4 C         141.8109  137.6742  162.1484 C.ar    1  UNL1        0.0031
      5 C         142.9793  138.5755  162.4173 C.ar    1  UNL1        0.0376
      6 C         143.3443  138.9294  163.8285 C.ar    1  UNL1        0.1496
      7 C         141.0262  140.5289  166.4187 C.3     1  UNL1        0.1151
      8 N         142.1486  139.8093  167.1059 N.am    1  UNL1       -0.2745
      9 C         142.9060  138.7358  166.3821 C.2     1  UNL1        0.2520
     10 O         144.0283  138.0162  167.0694 O.2     1  UNL1       -0.2698
     11 C         142.5137  140.1632  168.5172 C.3     1  UNL1        0.0928
     12 C         143.0847  141.4713  168.9785 C.3     1  UNL1        0.0383
     13 C         143.2957  141.3878  170.4613 C.3     1  UNL1        0.0704
     14 N         142.8552  140.0280  170.9163 N.3     1  UNL1       -0.2960
     15 C         142.3719  139.2712  169.7148 C.3     1  UNL1        0.0887
     16 H         142.0996  140.1182  171.5955 H       1  UNL1        0.1233
     17 O         144.5128  139.8308  164.0975 O.3     1  UNL1       -0.4533
     18 C         144.3813  141.3107  163.8917 C.ar    1  UNL1        0.1453
     19 C         144.0419  142.2018  165.0497 C.ar    1  UNL1        0.0375
     20 C         143.9104  143.6818  164.8439 C.ar    1  UNL1        0.0031
     21 C         144.1183  144.2707  163.4800 C.ar    1  UNL1        0.0002
     22 C         144.4577  143.3797  162.3221 C.ar    1  UNL1        0.0031
     23 C         144.5892  141.8997  162.5279 C.ar    1  UNL1        0.0375
@<TRIPOS>BOND
     1     7     8    1
     2     8     9   am
     3     9    10    2
     4     9     1    1
     5     1     2   ar
     6     2     3   ar
     7     3     4   ar
     8     4     5   ar
     9     5     6   ar
    10     6    17    1
    11    17    18    1
    12    18    19   ar
    13    19    20   ar
    14    20    21   ar
    15    21    22   ar
    16    22    23   ar
    17    11     8    1
    18    11    12    1
    19    12    13    1
    20    13    14    1
    21    14    15    1
    22     6     1   ar
    23    23    18   ar
    24    15    11    1
    25    14    16    1
@<TRIPOS>MOLECULE
*****
 23 25 0 0 0
SMALL
GASTEIGER

@<TRIPOS>ATOM
      1 C         141.3698  142.0093  167.7048 C.ar    1  UNL1        0.0880
      2 C         140.7022  142.9203  168.6918 C.ar    1  UNL1        0.0076
      3 C         139.8329  142.3479  169.7718 C.ar    1  UNL1        0.0003
      4 C         139.6311  140.8644  169.8648 C.ar    1  UNL1        0.0031
      5 C         140.2987  139.9534  168.8778 C.ar    1  UNL1        0.0376
      6 C         141.1680  140.5258  167.7977 C.ar    1  UNL1        0.1496
      7 C         140.1376  143.0040  165.1567 C.3     1  UNL1        0.1151
      8 N         141.6232  143.0790  165.3507 N.am    1  UNL1       -0.2745
      9 C         142.2392  142.5817  166.6247 C.2     1  UNL1        0.2520
     10 O         143.7248  142.6568  166.8187 O.2     1  UNL1       -0.2698
     11 C         142.4926  143.6514  164.2706 C.3     1  UNL1        0.0928
     12 C         143.4922  142.8928  163.4489 C.3     1  UNL1        0.0383
     13 C         144.1325  143.8555  162.4930 C.3     1  UNL1        0.0704
     14 N         143.5285  145.2089  162.7242 N.3     1  UNL1       -0.2960
     15 C         142.5150  145.0828  163.8228 C.3     1  UNL1        0.0887
     16 H         143.0752  145.5360  161.8709 H       1  UNL1        0.1233
     17 O         141.8357  139.6148  166.8106 O.3     1  UNL1       -0.4533
     18 C         141.0299  138.9671  165.7237 C.ar    1  UNL1        0.1453
     19 C         139.6117  139.3940  165.4857 C.ar    1  UNL1        0.0375
     20 C         138.8060  138.7463  164.3988 C.ar    1  UNL1        0.0031
     21 C         139.4184  137.6718  163.5500 C.ar    1  UNL1        0.0002
     22 C         140.8365  137.2450  163.7881 C.ar    1  UNL1        0.0031
     23 C         141.6423  137.8927  164.8750 C.ar    1  UNL1        0.0375
@<TRIPOS>BOND
     1     7     8    1
     2     8     9   am
     3     9    10    2
     4     9     1    1
     5     1     2   ar
     6     2     3   ar
     7     3     4   ar
     8     4     5   ar
     9     5     6   ar
    10     6    17    1
    11    17    18    1
    12    18    19   ar
    13    19    20   ar
    14    20    21   ar
    15    21    22   ar
    16    22    23   ar
    17    11     8    1
    18    11    12    1
    19    12    13    1
    20    13    14    1
    21    14    15    1
    22     6     1   ar
    23    23    18   ar
    24    15    11    1
    25    14    16    1
@<TRIPOS>MOLECULE
*****
 23 25 0 0 0
SMALL
GASTEIGER

@<TRIPOS>ATOM
      1 C         140.6649  139.4963  165.1025 C.ar    1  UNL1        0.0880
      2 C         140.5108  138.0439  164.7610 C.ar    1  UNL1        0.0076
      3 C         139.2820  137.2987  165.1906 C.ar    1  UNL1        0.0003
      4 C         138.2071  138.0060  165.9616 C.ar    1  UNL1        0.0031
      5 C         138.3612  139.4585  166.3031 C.ar    1  UNL1        0.0376
      6 C         139.5901  140.2036  165.8735 C.ar    1  UNL1        0.1496
      7 C         140.8161  140.6798  162.3499 C.3     1  UNL1        0.1151
      8 N         141.9694  140.8332  163.2967 N.am    1  UNL1       -0.2745
      9 C         141.8938  140.2415  164.6729 C.2     1  UNL1        0.2520
     10 O         143.0471  140.3950  165.6197 O.2     1  UNL1       -0.2698
     11 C         143.1983  141.5785  162.8671 C.3     1  UNL1        0.0928
     12 C         143.3105  143.0632  162.6853 C.3     1  UNL1        0.0383
     13 C         144.7123  143.3722  162.2498 C.3     1  UNL1        0.0704
     14 N         145.4664  142.0784  162.1624 N.3     1  UNL1       -0.2960
     15 C         144.5306  140.9698  162.5439 C.3     1  UNL1        0.0887
     16 H         146.2605  142.0966  162.8023 H       1  UNL1        0.1233
     17 O         139.7442  141.6561  166.2150 O.3     1  UNL1       -0.4533
     18 C         139.4069  142.7056  165.1977 C.ar    1  UNL1        0.1453
     19 C         138.0812  142.6720  164.4967 C.ar    1  UNL1        0.0375
     20 C         137.7440  143.7214  163.4793 C.ar    1  UNL1        0.0031
     21 C         138.7325  144.8044  163.1630 C.ar    1  UNL1        0.0002
     22 C         140.0582  144.8380  163.8640 C.ar    1  UNL1        0.0031
     23 C         140.3954  143.7885  164.8813 C.ar    1  UNL1        0.0375
@<TRIPOS>BOND
     1     7     8    1
     2     8     9   am
     3     9    10    2
     4     9     1    1
     5     1     2   ar
     6     2     3   ar
     7     3     4   ar
     8     4     5   ar
     9     5     6   ar
    10     6    17    1
    11    17    18    1
    12    18    19   ar
    13    19    20   ar
    14    20    21   ar
    15    21    22   ar
    16    22    23   ar
    17    11     8    1
    18    11    12    1
    19    12    13    1
    20    13    14    1
    21    14    15    1
    22     6     1   ar
    23    23    18   ar
    24    15    11    1
    25    14    16    1
@<TRIPOS>MOLECULE
*****
 23 25 0 0 0
SMALL
GASTEIGER

@<TRIPOS>ATOM
      1 C         143.3761  141.1689  165.8756 C.ar    1  UNL1        0.0880
      2 C         144.0112  142.5033  165.6190 C.ar    1  UNL1        0.0076
      3 C         144.8586  142.7083  164.3984 C.ar    1  UNL1        0.0003
      4 C         145.0710  141.5788  163.4345 C.ar    1  UNL1        0.0031
      5 C         144.4359  140.2444  163.6910 C.ar    1  UNL1        0.0376
      6 C         143.5885  140.0394  164.9116 C.ar    1  UNL1        0.1496
      7 C         140.5760  142.2427  165.9553 C.3     1  UNL1        0.1151
      8 N         141.1286  141.5007  167.1360 N.am    1  UNL1       -0.2745
      9 C         142.5287  140.9638  167.0962 C.2     1  UNL1        0.2520
     10 O         143.0813  140.2219  168.2769 O.2     1  UNL1       -0.2698
     11 C         140.2811  141.2957  168.3566 C.3     1  UNL1        0.0928
     12 C         139.4066  140.1088  168.6335 C.3     1  UNL1        0.0383
     13 C         138.7444  140.3211  169.9626 C.3     1  UNL1        0.0704
     14 N         139.2097  141.6391  170.5071 N.3     1  UNL1       -0.2960
     15 C         140.1594  142.2414  169.5145 C.3     1  UNL1        0.0887
     16 H         139.6846  141.4971  171.3985 H       1  UNL1        0.1233
     17 O         142.9533  138.7049  165.1682 O.3     1  UNL1       -0.4533
     18 C         141.6296  138.3723  164.5462 C.ar    1  UNL1        0.1453
     19 C         140.3774  138.4330  165.3699 C.ar    1  UNL1        0.0375
     20 C         139.0536  138.1004  164.7479 C.ar    1  UNL1        0.0031
     21 C         138.9820  137.7071  163.3021 C.ar    1  UNL1        0.0002
     22 C         140.2341  137.6464  162.4784 C.ar    1  UNL1        0.0031
     23 C         141.5579  137.9790  163.1005 C.ar    1  UNL1        0.0375
@<TRIPOS>BOND
     1     7     8    1
     2     8     9   am
     3     9    10    2
     4     9     1    1
     5     1     2   ar
     6     2     3   ar
     7     3     4   ar
     8     4     5   ar
     9     5     6   ar
    10     6    17    1
    11    17    18    1
    12    18    19   ar
    13    19    20   ar
    14    20    21   ar
    15    21    22   ar
    16    22    23   ar
    17    11     8    1
    18    11    12    1
    19    12    13    1
    20    13    14    1
    21    14    15    1
    22     6     1   ar
    23    23    18   ar
    24    15    11    1
    25    14    16    1
@<TRIPOS>MOLECULE
*****
 23 25 0 0 0
SMALL
GASTEIGER

@<TRIPOS>ATOM
      1 C         139.7826  140.2792  164.1519 C.ar    1  UNL1        0.0880
      2 C         138.8328  139.3794  163.4184 C.ar    1  UNL1        0.0076
      3 C         138.9021  137.8942  163.6171 C.ar    1  UNL1        0.0003
      4 C         139.9213  137.3090  164.5492 C.ar    1  UNL1        0.0031
      5 C         140.8711  138.2088  165.2827 C.ar    1  UNL1        0.0376
      6 C         140.8017  139.6940  165.0841 C.ar    1  UNL1        0.1496
      7 C         141.4005  141.5802  161.9862 C.3     1  UNL1        0.1151
      8 N         140.5222  142.4149  162.8705 N.am    1  UNL1       -0.2745
      9 C         139.7133  141.7645  163.9533 C.2     1  UNL1        0.2520
     10 O         138.8350  142.5992  164.8376 O.2     1  UNL1       -0.2698
     11 C         140.4529  143.9001  162.6719 C.3     1  UNL1        0.0928
     12 C         139.5311  144.6221  161.7344 C.3     1  UNL1        0.0383
     13 C         139.8017  146.0923  161.8589 C.3     1  UNL1        0.0704
     14 N         140.8908  146.2788  162.8734 N.3     1  UNL1       -0.2960
     15 C         141.2933  144.9240  163.3758 C.3     1  UNL1        0.0887
     16 H         140.5487  146.8476  163.6479 H       1  UNL1        0.1233
     17 O         141.7515  140.5940  165.8176 O.3     1  UNL1       -0.4533
     18 C         143.0565  140.9807  165.1870 C.ar    1  UNL1        0.1453
     19 C         143.4800  142.4195  165.1618 C.ar    1  UNL1        0.0375
     20 C         144.7849  142.8063  164.5313 C.ar    1  UNL1        0.0031
     21 C         145.6663  141.7543  163.9259 C.ar    1  UNL1        0.0002
     22 C         145.2428  140.3156  163.9511 C.ar    1  UNL1        0.0031
     23 C         143.9378  139.9288  164.5816 C.ar    1  UNL1        0.0375
@<TRIPOS>BOND
     1     7     8    1
     2     8     9   am
     3     9    10    2
     4     9     1    1
     5     1     2   ar
     6     2     3   ar
     7     3     4   ar
     8     4     5   ar
     9     5     6   ar
    10     6    17    1
    11    17    18    1
    12    18    19   ar
    13    19    20   ar
    14    20    21   ar
    15    21    22   ar
    16    22    23   ar
    17    11     8    1
    18    11    12    1
    19    12    13    1
    20    13    14    1
    21    14    15    1
    22     6     1   ar
    23    23    18   ar
    24    15    11    1
    25    14    16    1
