@<TRIPOS>MOLECULE
*****
 32 36 0 0 0
SMALL
GASTEIGER

@<TRIPOS>ATOM
      1 C         143.2924  143.3695  162.7997 C.2     1  UNL1        0.1157
      2 N         143.4623  143.5188  161.3169 N.2     1  UNL1       -0.1790
      3 N         142.1006  143.6761  160.7078 N.pl3   1  UNL1       -0.2061
      4 C         141.6511  143.8600  159.2886 C.ar    1  UNL1        0.1038
      5 C         142.6626  143.9121  158.1822 C.ar    1  UNL1        0.0308
      6 C         142.2131  144.0960  156.7631 C.ar    1  UNL1        0.0592
      7 CL        143.2246  144.1481  155.6566 Cl      1  UNL1       -0.0822
      8 C         140.7520  144.2278  156.4503 C.ar    1  UNL1        0.0146
      9 C         139.7405  144.1758  157.5566 C.ar    1  UNL1        0.0391
     10 C         140.1900  143.9918  158.9758 C.ar    1  UNL1        0.1536
     11 O         139.1785  143.9398  160.0822 O.3     1  UNL1       -0.4723
     12 C         139.6280  143.7558  161.5014 C.3     1  UNL1        0.2277
     13 C         141.0891  143.6240  161.8141 C.3     1  UNL1        0.1488
     14 C         141.8257  143.4345  163.1070 C.3     1  UNL1        0.0806
     15 C         140.4529  143.4611  163.7111 C.ar    1  UNL1       -0.0157
     16 C         139.9544  144.7045  164.3859 C.ar    1  UNL1       -0.0039
     17 C         138.5816  144.7311  164.9900 C.ar    1  UNL1       -0.0003
     18 C         137.7074  143.5143  164.9192 C.ar    1  UNL1       -0.0000
     19 C         138.2059  142.2709  164.2444 C.ar    1  UNL1       -0.0003
     20 C         139.5787  142.2442  163.6403 C.ar    1  UNL1       -0.0039
     21 C         145.2987  141.9929  163.7106 C.3     1  UNL1        0.0786
     22 C         144.3955  143.1872  163.7997 C.2     1  UNL1        0.1887
     23 O         144.5955  144.1992  164.8887 O.2     1  UNL1       -0.2900
     24 C         142.2752  143.2506  164.5263 C.3     1  UNL1        0.0130
     25 C         141.9007  142.0068  165.2764 C.3     1  UNL1        0.0181
     26 C         142.6321  141.6404  166.5337 C.3     1  UNL1        0.0723
     27 N         142.2217  142.2453  167.8435 N.3     1  UNL1       -0.2685
     28 C         140.8257  142.7630  168.0259 C.3     1  UNL1        0.1046
     29 C         140.4153  143.3679  169.3357 C.3     1  UNL1        0.1595
     30 O         141.4008  143.4551  170.4632 O.3     1  UNL1       -0.3508
     31 C         142.7968  142.9374  170.2808 C.3     1  UNL1        0.1595
     32 C         143.2072  142.3325  168.9710 C.3     1  UNL1        0.1046
@<TRIPOS>BOND
     1    21    22    1
     2    22    23    2
     3    22     1    1
     4     1     2    2
     5     2     3    1
     6     3     4    1
     7     4     5   ar
     8     5     6   ar
     9     6     7    1
    10     6     8   ar
    11     8     9   ar
    12     9    10   ar
    13    10    11    1
    14    11    12    1
    15    13    12    1
    16    13    14    1
    17    14    24    1
    18    24    25    1
    19    25    26    1
    20    26    27    1
    21    27    28    1
    22    28    29    1
    23    29    30    1
    24    30    31    1
    25    31    32    1
    26    14    15    1
    27    15    16   ar
    28    16    17   ar
    29    17    18   ar
    30    18    19   ar
    31    19    20   ar
    32    14     1    1
    33    32    27    1
    34    20    15   ar
    35    13     3    1
    36    10     4   ar
@<TRIPOS>MOLECULE
*****
 32 36 0 0 0
SMALL
GASTEIGER

@<TRIPOS>ATOM
      1 C         139.5851  144.1986  163.2291 C.2     1  UNL1        0.1157
      2 N         139.3862  144.7123  161.8339 N.2     1  UNL1       -0.1790
      3 N         140.6273  144.4105  161.0476 N.pl3   1  UNL1       -0.2061
      4 C         141.0027  144.6829  159.6210 C.ar    1  UNL1        0.1038
      5 C         140.0367  145.3830  158.7118 C.ar    1  UNL1        0.0308
      6 C         140.4121  145.6553  157.2854 C.ar    1  UNL1        0.0592
      7 CL        139.4461  146.3555  156.3761 Cl      1  UNL1       -0.0822
      8 C         141.7535  145.2275  156.7681 C.ar    1  UNL1        0.0146
      9 C         142.7195  144.5274  157.6772 C.ar    1  UNL1        0.0391
     10 C         142.3441  144.2551  159.1037 C.ar    1  UNL1        0.1536
     11 O         143.3102  143.5550  160.0129 O.3     1  UNL1       -0.4723
     12 C         142.9348  143.2826  161.4394 C.3     1  UNL1        0.2277
     13 C         141.5934  143.7104  161.9567 C.3     1  UNL1        0.1488
     14 C         140.9492  143.5794  163.3050 C.3     1  UNL1        0.0806
     15 C         142.2348  142.9033  163.6791 C.ar    1  UNL1       -0.0157
     16 C         142.4609  141.4665  163.3125 C.ar    1  UNL1       -0.0039
     17 C         143.7466  140.7904  163.6866 C.ar    1  UNL1       -0.0003
     18 C         144.8062  141.5510  164.4274 C.ar    1  UNL1       -0.0000
     19 C         144.5800  142.9878  164.7941 C.ar    1  UNL1       -0.0003
     20 C         143.2944  143.6640  164.4200 C.ar    1  UNL1       -0.0039
     21 C         137.3630  143.4312  164.3353 C.3     1  UNL1        0.0786
     22 C         138.5938  144.2884  164.3514 C.2     1  UNL1        0.1887
     23 O         138.8335  145.2353  165.4897 O.2     1  UNL1       -0.2900
     24 C         140.5738  143.3071  164.7316 C.3     1  UNL1        0.0130
     25 C         140.4392  141.8935  165.2149 C.3     1  UNL1        0.0181
     26 C         140.1178  141.6205  166.6544 C.3     1  UNL1        0.0723
     27 N         141.0322  142.1181  167.7344 N.3     1  UNL1       -0.2685
     28 C         142.5011  141.8212  167.6693 C.3     1  UNL1        0.1046
     29 C         143.4154  142.3188  168.7493 C.3     1  UNL1        0.1595
     30 O         142.8609  143.1132  169.8945 O.3     1  UNL1       -0.3508
     31 C         141.3920  143.4101  169.9596 C.3     1  UNL1        0.1595
     32 C         140.4776  142.9125  168.8795 C.3     1  UNL1        0.1046
@<TRIPOS>BOND
     1    21    22    1
     2    22    23    2
     3    22     1    1
     4     1     2    2
     5     2     3    1
     6     3     4    1
     7     4     5   ar
     8     5     6   ar
     9     6     7    1
    10     6     8   ar
    11     8     9   ar
    12     9    10   ar
    13    10    11    1
    14    11    12    1
    15    13    12    1
    16    13    14    1
    17    14    24    1
    18    24    25    1
    19    25    26    1
    20    26    27    1
    21    27    28    1
    22    28    29    1
    23    29    30    1
    24    30    31    1
    25    31    32    1
    26    14    15    1
    27    15    16   ar
    28    16    17   ar
    29    17    18   ar
    30    18    19   ar
    31    19    20   ar
    32    14     1    1
    33    32    27    1
    34    20    15   ar
    35    13     3    1
    36    10     4   ar
@<TRIPOS>MOLECULE
*****
 32 36 0 0 0
SMALL
GASTEIGER

@<TRIPOS>ATOM
      1 C         140.5942  138.8029  164.0921 C.2     1  UNL1        0.1157
      2 N         139.8589  138.9025  165.3957 N.2     1  UNL1       -0.1790
      3 N         140.5639  139.9145  166.2494 N.pl3   1  UNL1       -0.2061
      4 C         140.2908  140.4251  167.6332 C.ar    1  UNL1        0.1038
      5 C         139.1197  139.8992  168.4091 C.ar    1  UNL1        0.0308
      6 C         138.8467  140.4099  169.7928 C.ar    1  UNL1        0.0592
      7 CL        137.6756  139.8840  170.5688 Cl      1  UNL1       -0.0822
      8 C         139.7446  141.4463  170.4005 C.ar    1  UNL1        0.0146
      9 C         140.9157  141.9722  169.6246 C.ar    1  UNL1        0.0391
     10 C         141.1887  141.4616  168.2409 C.ar    1  UNL1        0.1536
     11 O         142.3598  141.9874  167.4649 O.3     1  UNL1       -0.4723
     12 C         142.6329  141.4768  166.0812 C.3     1  UNL1        0.2277
     13 C         141.7349  140.4403  165.4735 C.3     1  UNL1        0.1488
     14 C         141.7537  139.7533  164.1402 C.3     1  UNL1        0.0806
     15 C         142.9703  140.5970  163.8990 C.ar    1  UNL1       -0.0157
     16 C         142.8192  142.0451  163.5384 C.ar    1  UNL1       -0.0039
     17 C         144.0358  142.8889  163.2972 C.ar    1  UNL1       -0.0003
     18 C         145.4034  142.2844  163.4165 C.ar    1  UNL1       -0.0000
     19 C         145.5545  140.8362  163.7770 C.ar    1  UNL1       -0.0003
     20 C         144.3379  139.9925  164.0183 C.ar    1  UNL1       -0.0039
     21 C         138.8913  138.0382  162.2851 C.3     1  UNL1        0.0786
     22 C         140.2334  137.9096  162.9423 C.2     1  UNL1        0.1887
     23 O         141.2149  136.8878  162.4498 O.2     1  UNL1       -0.2900
     24 C         142.0268  139.2427  162.7564 C.3     1  UNL1        0.0130
     25 C         142.1594  140.2058  161.6142 C.3     1  UNL1        0.0181
     26 C         140.9581  140.5604  160.7889 C.3     1  UNL1        0.0723
     27 N         140.1796  141.8058  161.0941 N.3     1  UNL1       -0.2685
     28 C         140.6985  143.1419  160.6519 C.3     1  UNL1        0.1046
     29 C         139.9201  144.3872  160.9570 C.3     1  UNL1        0.1595
     30 O         138.6226  144.2965  161.7044 O.3     1  UNL1       -0.3508
     31 C         138.1037  142.9604  162.1466 C.3     1  UNL1        0.1595
     32 C         138.8822  141.7150  161.8414 C.3     1  UNL1        0.1046
@<TRIPOS>BOND
     1    21    22    1
     2    22    23    2
     3    22     1    1
     4     1     2    2
     5     2     3    1
     6     3     4    1
     7     4     5   ar
     8     5     6   ar
     9     6     7    1
    10     6     8   ar
    11     8     9   ar
    12     9    10   ar
    13    10    11    1
    14    11    12    1
    15    13    12    1
    16    13    14    1
    17    14    24    1
    18    24    25    1
    19    25    26    1
    20    26    27    1
    21    27    28    1
    22    28    29    1
    23    29    30    1
    24    30    31    1
    25    31    32    1
    26    14    15    1
    27    15    16   ar
    28    16    17   ar
    29    17    18   ar
    30    18    19   ar
    31    19    20   ar
    32    14     1    1
    33    32    27    1
    34    20    15   ar
    35    13     3    1
    36    10     4   ar
@<TRIPOS>MOLECULE
*****
 32 36 0 0 0
SMALL
GASTEIGER

@<TRIPOS>ATOM
      1 C         143.6798  139.6970  163.0040 C.2     1  UNL1        0.1157
      2 N         143.7732  139.3816  161.5405 N.2     1  UNL1       -0.1790
      3 N         142.3841  139.1403  161.0288 N.pl3   1  UNL1       -0.2061
      4 C         141.8630  138.7907  159.6663 C.ar    1  UNL1        0.1038
      5 C         142.8150  138.6245  158.5191 C.ar    1  UNL1        0.0308
      6 C         142.2939  138.2749  157.1567 C.ar    1  UNL1        0.0592
      7 CL        143.2459  138.1086  156.0095 Cl      1  UNL1       -0.0822
      8 C         140.8207  138.0915  156.9415 C.ar    1  UNL1        0.0146
      9 C         139.8687  138.2577  158.0887 C.ar    1  UNL1        0.0391
     10 C         140.3899  138.6073  159.4511 C.ar    1  UNL1        0.1536
     11 O         139.4378  138.7736  160.5983 O.3     1  UNL1       -0.4723
     12 C         139.9590  139.1232  161.9607 C.3     1  UNL1        0.2277
     13 C         141.4321  139.3066  162.1759 C.3     1  UNL1        0.1488
     14 C         142.2329  139.6506  163.3967 C.3     1  UNL1        0.0806
     15 C         140.8949  139.6773  164.0743 C.ar    1  UNL1       -0.0157
     16 C         140.4384  138.4970  164.8796 C.ar    1  UNL1       -0.0039
     17 C         139.1004  138.5237  165.5572 C.ar    1  UNL1       -0.0003
     18 C         138.2189  139.7307  165.4294 C.ar    1  UNL1       -0.0000
     19 C         138.6754  140.9109  164.6241 C.ar    1  UNL1       -0.0003
     20 C         140.0135  140.8843  163.9465 C.ar    1  UNL1       -0.0039
     21 C         145.5772  141.2979  163.7701 C.3     1  UNL1        0.0786
     22 C         144.8312  140.0047  163.9149 C.2     1  UNL1        0.1887
     23 O         145.2366  139.0191  164.9705 O.2     1  UNL1       -0.2900
     24 C         142.7540  140.0002  164.7592 C.3     1  UNL1        0.0130
     25 C         142.4461  141.3402  165.3588 C.3     1  UNL1        0.0181
     26 C         142.7541  141.6042  166.8029 C.3     1  UNL1        0.0723
     27 N         141.9511  140.9310  167.8763 N.3     1  UNL1       -0.2685
     28 C         140.4628  141.1113  167.9241 C.3     1  UNL1        0.1046
     29 C         139.6598  140.4381  168.9975 C.3     1  UNL1        0.1595
     30 O         140.3453  139.5845  170.0230 O.3     1  UNL1       -0.3508
     31 C         141.8336  139.4042  169.9752 C.3     1  UNL1        0.1595
     32 C         142.6366  140.0775  168.9018 C.3     1  UNL1        0.1046
@<TRIPOS>BOND
     1    21    22    1
     2    22    23    2
     3    22     1    1
     4     1     2    2
     5     2     3    1
     6     3     4    1
     7     4     5   ar
     8     5     6   ar
     9     6     7    1
    10     6     8   ar
    11     8     9   ar
    12     9    10   ar
    13    10    11    1
    14    11    12    1
    15    13    12    1
    16    13    14    1
    17    14    24    1
    18    24    25    1
    19    25    26    1
    20    26    27    1
    21    27    28    1
    22    28    29    1
    23    29    30    1
    24    30    31    1
    25    31    32    1
    26    14    15    1
    27    15    16   ar
    28    16    17   ar
    29    17    18   ar
    30    18    19   ar
    31    19    20   ar
    32    14     1    1
    33    32    27    1
    34    20    15   ar
    35    13     3    1
    36    10     4   ar
@<TRIPOS>MOLECULE
*****
 32 36 0 0 0
SMALL
GASTEIGER

@<TRIPOS>ATOM
      1 C         139.9270  143.3487  163.4415 C.2     1  UNL1        0.1157
      2 N         139.7444  144.0845  162.1471 N.2     1  UNL1       -0.1790
      3 N         140.9184  143.7728  161.2671 N.pl3   1  UNL1       -0.2061
      4 C         141.2777  144.2145  159.8794 C.ar    1  UNL1        0.1038
      5 C         140.3695  145.1429  159.1290 C.ar    1  UNL1        0.0308
      6 C         140.7289  145.5845  157.7413 C.ar    1  UNL1        0.0592
      7 CL        139.8206  146.5130  156.9908 Cl      1  UNL1       -0.0822
      8 C         141.9965  145.0977  157.1039 C.ar    1  UNL1        0.0146
      9 C         142.9047  144.1693  157.8543 C.ar    1  UNL1        0.0391
     10 C         142.5453  143.7277  159.2420 C.ar    1  UNL1        0.1536
     11 O         143.4536  142.7992  159.9925 O.3     1  UNL1       -0.4723
     12 C         143.0942  142.3576  161.3802 C.3     1  UNL1        0.2277
     13 C         141.8266  142.8444  162.0175 C.3     1  UNL1        0.1488
     14 C         141.2139  142.5823  163.3613 C.3     1  UNL1        0.0806
     15 C         142.4257  141.7235  163.5713 C.ar    1  UNL1       -0.0157
     16 C         142.3267  140.2352  163.4130 C.ar    1  UNL1       -0.0039
     17 C         143.5385  139.3763  163.6230 C.ar    1  UNL1       -0.0003
     18 C         144.8493  140.0059  163.9913 C.ar    1  UNL1       -0.0000
     19 C         144.9483  141.4942  164.1497 C.ar    1  UNL1       -0.0003
     20 C         143.7364  142.3530  163.9397 C.ar    1  UNL1       -0.0039
     21 C         138.8352  144.6268  165.4225 C.3     1  UNL1        0.0786
     22 C         138.9877  143.3748  164.6107 C.2     1  UNL1        0.1887
     23 O         138.2008  142.1488  164.9680 O.2     1  UNL1       -0.2900
     24 C         140.8546  142.1406  164.7491 C.3     1  UNL1        0.0130
     25 C         141.7033  142.5593  165.9128 C.3     1  UNL1        0.0181
     26 C         141.9044  141.6251  167.0690 C.3     1  UNL1        0.0723
     27 N         140.9735  141.6747  168.2441 N.3     1  UNL1       -0.2685
     28 C         140.1101  140.4915  168.5675 C.3     1  UNL1        0.1046
     29 C         139.1792  140.5411  169.7426 C.3     1  UNL1        0.1595
     30 O         139.1116  141.7740  170.5944 O.3     1  UNL1       -0.3508
     31 C         139.9750  142.9572  170.2710 C.3     1  UNL1        0.1595
     32 C         140.9059  142.9076  169.0959 C.3     1  UNL1        0.1046
@<TRIPOS>BOND
     1    21    22    1
     2    22    23    2
     3    22     1    1
     4     1     2    2
     5     2     3    1
     6     3     4    1
     7     4     5   ar
     8     5     6   ar
     9     6     7    1
    10     6     8   ar
    11     8     9   ar
    12     9    10   ar
    13    10    11    1
    14    11    12    1
    15    13    12    1
    16    13    14    1
    17    14    24    1
    18    24    25    1
    19    25    26    1
    20    26    27    1
    21    27    28    1
    22    28    29    1
    23    29    30    1
    24    30    31    1
    25    31    32    1
    26    14    15    1
    27    15    16   ar
    28    16    17   ar
    29    17    18   ar
    30    18    19   ar
    31    19    20   ar
    32    14     1    1
    33    32    27    1
    34    20    15   ar
    35    13     3    1
    36    10     4   ar
@<TRIPOS>MOLECULE
*****
 32 36 0 0 0
SMALL
GASTEIGER

@<TRIPOS>ATOM
      1 C         139.4273  143.3151  163.2239 C.2     1  UNL1        0.1157
      2 N         139.1777  143.5356  161.7614 N.2     1  UNL1       -0.1790
      3 N         139.0507  142.1927  161.1052 N.pl3   1  UNL1       -0.2061
      4 C         138.8013  141.7908  159.6817 C.ar    1  UNL1        0.1038
      5 C         138.6302  142.8412  158.6248 C.ar    1  UNL1        0.0308
      6 C         138.3808  142.4392  157.2013 C.ar    1  UNL1        0.0592
      7 CL        138.2097  143.4897  156.1443 Cl      1  UNL1       -0.0822
      8 C         138.3025  140.9868  156.8349 C.ar    1  UNL1        0.0146
      9 C         138.4736  139.9364  157.8918 C.ar    1  UNL1        0.0391
     10 C         138.7230  140.3383  159.3153 C.ar    1  UNL1        0.1536
     11 O         138.8941  139.2879  160.3723 O.3     1  UNL1       -0.4723
     12 C         139.1435  139.6898  161.7957 C.3     1  UNL1        0.2277
     13 C         139.2218  141.1423  162.1622 C.3     1  UNL1        0.1488
     14 C         139.4546  141.8359  163.4716 C.3     1  UNL1        0.0806
     15 C         139.5340  140.4408  164.0170 C.ar    1  UNL1       -0.0157
     16 C         138.3847  139.8738  164.7964 C.ar    1  UNL1       -0.0039
     17 C         138.4640  138.4786  165.3418 C.ar    1  UNL1       -0.0003
     18 C         139.6927  137.6506  165.1076 C.ar    1  UNL1       -0.0000
     19 C         140.8419  138.2176  164.3282 C.ar    1  UNL1       -0.0003
     20 C         140.7626  139.6128  163.7828 C.ar    1  UNL1       -0.0039
     21 C         138.4870  144.7511  165.1742 C.3     1  UNL1        0.0786
     22 C         139.6165  144.3858  164.2574 C.2     1  UNL1        0.1887
     23 O         140.9352  145.0910  164.3738 O.2     1  UNL1       -0.2900
     24 C         139.7040  142.2379  164.8952 C.3     1  UNL1        0.0130
     25 C         140.9840  141.8460  165.5719 C.3     1  UNL1        0.0181
     26 C         141.3713  142.4859  166.8720 C.3     1  UNL1        0.0723
     27 N         140.6359  142.1319  168.1306 N.3     1  UNL1       -0.2685
     28 C         140.0125  140.7757  168.2788 C.3     1  UNL1        0.1046
     29 C         139.2771  140.4217  169.5374 C.3     1  UNL1        0.1595
     30 O         139.1651  141.4241  170.6477 O.3     1  UNL1       -0.3508
     31 C         139.7885  142.7803  170.4995 C.3     1  UNL1        0.1595
     32 C         140.5239  143.1342  169.2409 C.3     1  UNL1        0.1046
@<TRIPOS>BOND
     1    21    22    1
     2    22    23    2
     3    22     1    1
     4     1     2    2
     5     2     3    1
     6     3     4    1
     7     4     5   ar
     8     5     6   ar
     9     6     7    1
    10     6     8   ar
    11     8     9   ar
    12     9    10   ar
    13    10    11    1
    14    11    12    1
    15    13    12    1
    16    13    14    1
    17    14    24    1
    18    24    25    1
    19    25    26    1
    20    26    27    1
    21    27    28    1
    22    28    29    1
    23    29    30    1
    24    30    31    1
    25    31    32    1
    26    14    15    1
    27    15    16   ar
    28    16    17   ar
    29    17    18   ar
    30    18    19   ar
    31    19    20   ar
    32    14     1    1
    33    32    27    1
    34    20    15   ar
    35    13     3    1
    36    10     4   ar
@<TRIPOS>MOLECULE
*****
 32 36 0 0 0
SMALL
GASTEIGER

@<TRIPOS>ATOM
      1 C         139.4858  139.2318  162.8265 C.2     1  UNL1        0.1157
      2 N         139.3366  139.0562  161.3443 N.2     1  UNL1       -0.1790
      3 N         139.0844  140.4061  160.7408 N.pl3   1  UNL1       -0.2061
      4 C         138.8599  140.8461  159.3244 C.ar    1  UNL1        0.1038
      5 C         138.8666  139.8363  158.2153 C.ar    1  UNL1        0.0308
      6 C         138.6422  140.2764  156.7990 C.ar    1  UNL1        0.0592
      7 CL        138.6489  139.2666  155.6898 Cl      1  UNL1       -0.0822
      8 C         138.4110  141.7263  156.4919 C.ar    1  UNL1        0.0146
      9 C         138.4043  142.7361  157.6010 C.ar    1  UNL1        0.0391
     10 C         138.6287  142.2960  159.0172 C.ar    1  UNL1        0.1536
     11 O         138.6220  143.3059  160.1265 O.3     1  UNL1       -0.4723
     12 C         138.8465  142.8658  161.5427 C.3     1  UNL1        0.2277
     13 C         139.0776  141.4159  161.8499 C.3     1  UNL1        0.1488
     14 C         139.3257  140.6901  163.1390 C.3     1  UNL1        0.0806
     15 C         139.2126  142.0565  163.7476 C.ar    1  UNL1       -0.0157
     16 C         140.4108  142.9575  163.7959 C.ar    1  UNL1       -0.0039
     17 C         140.2978  144.3239  164.4044 C.ar    1  UNL1       -0.0003
     18 C         138.9864  144.7892  164.9647 C.ar    1  UNL1       -0.0000
     19 C         137.7882  143.8882  164.9164 C.ar    1  UNL1       -0.0003
     20 C         137.9012  142.5218  164.3078 C.ar    1  UNL1       -0.0039
     21 C         141.0593  137.4109  163.8056 C.3     1  UNL1        0.0786
     22 C         139.7488  138.1406  163.8216 C.2     1  UNL1        0.1887
     23 O         138.7014  137.7791  164.8326 O.2     1  UNL1       -0.2900
     24 C         139.5502  140.2501  164.5554 C.3     1  UNL1        0.0130
     25 C         140.8052  140.6476  165.2743 C.3     1  UNL1        0.0181
     26 C         141.0712  140.1343  166.6584 C.3     1  UNL1        0.0723
     27 N         140.5901  140.9073  167.8504 N.3     1  UNL1       -0.2685
     28 C         139.7221  140.2407  168.8762 C.3     1  UNL1        0.1046
     29 C         139.2410  141.0136  170.0682 C.3     1  UNL1        0.1595
     30 O         139.6278  142.4534  170.2345 O.3     1  UNL1       -0.3508
     31 C         140.4958  143.1201  169.2088 C.3     1  UNL1        0.1595
     32 C         140.9769  142.3470  168.0167 C.3     1  UNL1        0.1046
@<TRIPOS>BOND
     1    21    22    1
     2    22    23    2
     3    22     1    1
     4     1     2    2
     5     2     3    1
     6     3     4    1
     7     4     5   ar
     8     5     6   ar
     9     6     7    1
    10     6     8   ar
    11     8     9   ar
    12     9    10   ar
    13    10    11    1
    14    11    12    1
    15    13    12    1
    16    13    14    1
    17    14    24    1
    18    24    25    1
    19    25    26    1
    20    26    27    1
    21    27    28    1
    22    28    29    1
    23    29    30    1
    24    30    31    1
    25    31    32    1
    26    14    15    1
    27    15    16   ar
    28    16    17   ar
    29    17    18   ar
    30    18    19   ar
    31    19    20   ar
    32    14     1    1
    33    32    27    1
    34    20    15   ar
    35    13     3    1
    36    10     4   ar
@<TRIPOS>MOLECULE
*****
 32 36 0 0 0
SMALL
GASTEIGER

@<TRIPOS>ATOM
      1 C         143.5580  140.9740  163.7555 C.2     1  UNL1        0.1157
      2 N         143.5634  140.2712  165.0807 N.2     1  UNL1       -0.1790
      3 N         142.4527  140.8412  165.9121 N.pl3   1  UNL1       -0.2061
      4 C         141.9819  140.5359  167.3033 C.ar    1  UNL1        0.1038
      5 C         142.6738  139.4809  168.1146 C.ar    1  UNL1        0.0308
      6 C         142.2030  139.1755  169.5056 C.ar    1  UNL1        0.0592
      7 CL        142.8949  138.1205  170.3170 Cl      1  UNL1       -0.0822
      8 C         141.0403  139.9252  170.0854 C.ar    1  UNL1        0.0146
      9 C         140.3484  140.9802  169.2741 C.ar    1  UNL1        0.0391
     10 C         140.8192  141.2855  167.8830 C.ar    1  UNL1        0.1536
     11 O         140.1273  142.3405  167.0717 O.3     1  UNL1       -0.4723
     12 C         140.5981  142.6459  165.6806 C.3     1  UNL1        0.2277
     13 C         141.7608  141.8962  165.1009 C.3     1  UNL1        0.1488
     14 C         142.4439  141.9783  163.7680 C.3     1  UNL1        0.0806
     15 C         141.4282  143.0464  163.4896 C.ar    1  UNL1       -0.0157
     16 C         140.0163  142.6690  163.1519 C.ar    1  UNL1       -0.0039
     17 C         139.0006  143.7371  162.8735 C.ar    1  UNL1       -0.0003
     18 C         139.3968  145.1827  162.9328 C.ar    1  UNL1       -0.0000
     19 C         140.8087  145.5601  163.2705 C.ar    1  UNL1       -0.0003
     20 C         141.8245  144.4919  163.5489 C.ar    1  UNL1       -0.0039
     21 C         144.3091  139.5158  161.7407 C.3     1  UNL1        0.0786
     22 C         144.5012  140.7174  162.6176 C.2     1  UNL1        0.1887
     23 O         145.6363  141.6626  162.3568 O.2     1  UNL1       -0.2900
     24 C         142.9147  142.2837  162.3769 C.3     1  UNL1        0.0130
     25 C         142.0348  141.9737  161.2023 C.3     1  UNL1        0.0181
     26 C         142.4922  142.3083  159.8136 C.3     1  UNL1        0.0723
     27 N         141.9908  143.5500  159.1375 N.3     1  UNL1       -0.2685
     28 C         142.6875  144.0723  157.9161 C.3     1  UNL1        0.1046
     29 C         142.1862  145.3139  157.2400 C.3     1  UNL1        0.1595
     30 O         140.9881  146.0331  157.7853 O.3     1  UNL1       -0.3508
     31 C         140.2914  145.5108  159.0066 C.3     1  UNL1        0.1595
     32 C         140.7928  144.2692  159.6827 C.3     1  UNL1        0.1046
@<TRIPOS>BOND
     1    21    22    1
     2    22    23    2
     3    22     1    1
     4     1     2    2
     5     2     3    1
     6     3     4    1
     7     4     5   ar
     8     5     6   ar
     9     6     7    1
    10     6     8   ar
    11     8     9   ar
    12     9    10   ar
    13    10    11    1
    14    11    12    1
    15    13    12    1
    16    13    14    1
    17    14    24    1
    18    24    25    1
    19    25    26    1
    20    26    27    1
    21    27    28    1
    22    28    29    1
    23    29    30    1
    24    30    31    1
    25    31    32    1
    26    14    15    1
    27    15    16   ar
    28    16    17   ar
    29    17    18   ar
    30    18    19   ar
    31    19    20   ar
    32    14     1    1
    33    32    27    1
    34    20    15   ar
    35    13     3    1
    36    10     4   ar
@<TRIPOS>MOLECULE
*****
 32 36 0 0 0
SMALL
GASTEIGER

@<TRIPOS>ATOM
      1 C         143.3699  140.7211  163.6799 C.2     1  UNL1        0.1157
      2 N         143.4221  140.0495  165.0202 N.2     1  UNL1       -0.1790
      3 N         142.3990  140.6989  165.9042 N.pl3   1  UNL1       -0.2061
      4 C         142.0022  140.4518  167.3295 C.ar    1  UNL1        0.1038
      5 C         142.6868  139.3789  168.1234 C.ar    1  UNL1        0.0308
      6 C         142.2900  139.1319  169.5487 C.ar    1  UNL1        0.0592
      7 CL        142.9746  138.0589  170.3426 Cl      1  UNL1       -0.0822
      8 C         141.2087  139.9577  170.1801 C.ar    1  UNL1        0.0146
      9 C         140.5241  141.0306  169.3863 C.ar    1  UNL1        0.0391
     10 C         140.9209  141.2776  167.9610 C.ar    1  UNL1        0.1536
     11 O         140.2363  142.3505  167.1670 O.3     1  UNL1       -0.4723
     12 C         140.6330  142.5976  165.7418 C.3     1  UNL1        0.2277
     13 C         141.7144  141.7717  165.1103 C.3     1  UNL1        0.1488
     14 C         142.3145  141.7855  163.7357 C.3     1  UNL1        0.0806
     15 C         141.3420  142.9015  163.4934 C.ar    1  UNL1       -0.0157
     16 C         139.8837  142.5998  163.3137 C.ar    1  UNL1       -0.0039
     17 C         138.9111  143.7158  163.0714 C.ar    1  UNL1       -0.0003
     18 C         139.3969  145.1336  163.0088 C.ar    1  UNL1       -0.0000
     19 C         140.8552  145.4354  163.1884 C.ar    1  UNL1       -0.0003
     20 C         141.8278  144.3193  163.4307 C.ar    1  UNL1       -0.0039
     21 C         144.0750  139.0582  161.8124 C.3     1  UNL1        0.0786
     22 C         144.2233  140.3869  162.4925 C.2     1  UNL1        0.1887
     23 O         145.2250  141.3815  161.9851 O.2     1  UNL1       -0.2900
     24 C         142.7112  142.0326  162.3103 C.3     1  UNL1        0.0130
     25 C         141.6710  142.0221  161.2296 C.3     1  UNL1        0.0181
     26 C         141.3154  140.7365  160.5435 C.3     1  UNL1        0.0723
     27 N         140.1263  139.9455  161.0023 N.3     1  UNL1       -0.2685
     28 C         140.3091  138.8004  161.9538 C.3     1  UNL1        0.1046
     29 C         139.1201  138.0093  162.4126 C.3     1  UNL1        0.1595
     30 O         137.7482  138.3634  161.9199 O.3     1  UNL1       -0.3508
     31 C         137.5654  139.5085  160.9684 C.3     1  UNL1        0.1595
     32 C         138.7545  140.2995  160.5096 C.3     1  UNL1        0.1046
@<TRIPOS>BOND
     1    21    22    1
     2    22    23    2
     3    22     1    1
     4     1     2    2
     5     2     3    1
     6     3     4    1
     7     4     5   ar
     8     5     6   ar
     9     6     7    1
    10     6     8   ar
    11     8     9   ar
    12     9    10   ar
    13    10    11    1
    14    11    12    1
    15    13    12    1
    16    13    14    1
    17    14    24    1
    18    24    25    1
    19    25    26    1
    20    26    27    1
    21    27    28    1
    22    28    29    1
    23    29    30    1
    24    30    31    1
    25    31    32    1
    26    14    15    1
    27    15    16   ar
    28    16    17   ar
    29    17    18   ar
    30    18    19   ar
    31    19    20   ar
    32    14     1    1
    33    32    27    1
    34    20    15   ar
    35    13     3    1
    36    10     4   ar
