@<TRIPOS>MOLECULE
*****
 47 52 0 0 0
SMALL
GASTEIGER

@<TRIPOS>ATOM
      1 N         138.4435  142.8337  160.2746 N.pl3   1  UNL1       -0.2801
      2 H         137.8130  143.3961  159.7693 H       1  UNL1        0.1552
      3 C         140.4643  141.9399  158.9079 C.ar    1  UNL1        0.1477
      4 C         139.1511  141.7007  159.5922 C.ar    1  UNL1        0.0846
      5 C         138.5453  140.3284  159.5940 C.ar    1  UNL1        0.0174
      6 C         139.2529  139.1954  158.9116 C.ar    1  UNL1       -0.0031
      7 C         140.5661  139.4347  158.2273 C.ar    1  UNL1       -0.0218
      8 C         141.1717  140.8069  158.2255 C.ar    1  UNL1        0.0091
      9 C         142.4616  141.2591  157.6074 C.3     1  UNL1        0.0292
     10 C         143.4642  140.4506  156.8385 C.3     1  UNL1        0.0062
     11 C         143.4247  138.9905  156.4978 C.3     1  UNL1        0.0166
     12 C         142.3728  137.9779  156.8418 C.3     1  UNL1        0.0619
     13 C         141.1006  138.1756  157.6115 C.3     1  UNL1        0.0421
     14 N         142.6266  136.5834  156.3513 N.3     1  UNL1       -0.2713
     15 C         142.9639  135.4949  157.3268 C.3     1  UNL1        0.0896
     16 C         143.2177  134.1003  156.8362 C.3     1  UNL1        0.0897
     17 N         143.1343  133.7941  155.3701 N.3     1  UNL1       -0.2682
     18 C         142.7970  134.8825  154.3946 C.3     1  UNL1        0.0897
     19 C         142.5431  136.2772  154.8852 C.3     1  UNL1        0.0896
     20 C         143.3881  132.3995  154.8796 C.3     1  UNL1        0.1043
     21 C         144.2759  131.4787  155.6633 C.3     1  UNL1        0.1544
     22 O         145.5562  131.9924  156.2520 O.3     1  UNL1       -0.3805
     23 H         146.1655  132.2364  155.5377 H       1  UNL1        0.2105
     24 C         141.8721  143.7795  160.0843 C.3     1  UNL1        0.2525
     25 O         141.0700  143.3122  158.9061 O.3     1  UNL1       -0.4705
     26 C         138.6967  143.1097  161.7271 C.ar    1  UNL1        0.2220
     27 N         138.0016  144.2528  162.4057 N.ar    1  UNL1       -0.2110
     28 C         138.2547  144.5288  163.8581 C.ar    1  UNL1        0.1160
     29 C         139.2030  143.6618  164.6321 C.ar    1  UNL1        0.1085
     30 CL        139.4561  143.9378  166.0847 Cl      1  UNL1       -0.0777
     31 C         139.8981  142.5187  163.9537 C.ar    1  UNL1        0.1472
     32 N         139.6449  142.2427  162.5012 N.ar    1  UNL1       -0.1976
     33 N         140.8463  141.6517  164.7277 N.pl3   1  UNL1       -0.2961
     34 H         140.4981  141.0008  165.3792 H       1  UNL1        0.1537
     35 C         142.3250  141.7762  164.5091 C.ar    1  UNL1        0.0644
     36 C         143.0685  142.9551  165.0635 C.ar    1  UNL1        0.0159
     37 C         144.5473  143.0796  164.8449 C.ar    1  UNL1        0.0014
     38 C         145.2825  142.0253  164.0720 C.ar    1  UNL1        0.0014
     39 C         144.5392  140.8463  163.5175 C.ar    1  UNL1        0.0174
     40 C         143.0603  140.7217  163.7361 C.ar    1  UNL1        0.0818
     41 N         142.3169  139.5428  163.1817 N.pl3   1  UNL1       -0.1931
     42 C         141.8261  139.3933  161.7721 C.3     1  UNL1        0.1174
     43 C         141.1396  138.0645  161.6588 C.3     1  UNL1        0.0507
     44 C         141.2061  137.3927  162.9983 C.3     1  UNL1        0.1745
     45 S         141.9337  138.3063  163.9395 S.O2    1  UNL1        0.0570
     46 O         141.6920  137.2131  164.9377 O.2     1  UNL1       -0.1543
     47 O         142.6108  138.9914  165.0894 O.2     1  UNL1       -0.1543
@<TRIPOS>BOND
     1    24    25    1
     2    25     3    1
     3     3     4   ar
     4     4     1    1
     5     1    26    1
     6    26    27   ar
     7    27    28   ar
     8    28    29   ar
     9    29    30    1
    10    29    31   ar
    11    31    33    1
    12    33    35    1
    13    35    36   ar
    14    36    37   ar
    15    37    38   ar
    16    38    39   ar
    17    39    40   ar
    18    40    41    1
    19    41    42    1
    20    42    43    1
    21    43    44    1
    22    44    45    1
    23    45    46    2
    24    45    47    2
    25    31    32   ar
    26     4     5   ar
    27     5     6   ar
    28     6     7   ar
    29     7     8   ar
    30     8     9    1
    31     9    10    1
    32    10    11    1
    33    11    12    1
    34    12    14    1
    35    14    15    1
    36    15    16    1
    37    16    17    1
    38    17    20    1
    39    20    21    1
    40    21    22    1
    41    17    18    1
    42    18    19    1
    43    12    13    1
    44     8     3   ar
    45    19    14    1
    46    32    26   ar
    47    13     7    1
    48    40    35   ar
    49    45    41    1
    50     1     2    1
    51    33    34    1
    52    22    23    1
@<TRIPOS>MOLECULE
*****
 47 52 0 0 0
SMALL
GASTEIGER

@<TRIPOS>ATOM
      1 N         138.6919  142.8942  160.0436 N.pl3   1  UNL1       -0.2801
      2 H         138.1723  143.5087  159.4765 H       1  UNL1        0.1552
      3 C         140.6228  141.7496  158.7351 C.ar    1  UNL1        0.1477
      4 C         139.3058  141.6620  159.4479 C.ar    1  UNL1        0.0846
      5 C         138.6027  140.3422  159.5651 C.ar    1  UNL1        0.0174
      6 C         139.2166  139.1099  158.9694 C.ar    1  UNL1       -0.0031
      7 C         140.5336  139.1976  158.2566 C.ar    1  UNL1       -0.0218
      8 C         141.2365  140.5173  158.1396 C.ar    1  UNL1        0.0091
      9 C         142.5465  140.8236  157.4759 C.3     1  UNL1        0.0292
     10 C         143.4768  139.8856  156.7655 C.3     1  UNL1        0.0062
     11 C         143.3270  138.4098  156.5433 C.3     1  UNL1        0.0166
     12 C         142.2099  137.5073  156.9766 C.3     1  UNL1        0.0619
     13 C         140.9667  137.8579  157.7391 C.3     1  UNL1        0.0421
     14 N         142.3553  136.0635  156.5972 N.3     1  UNL1       -0.2713
     15 C         141.4955  135.4824  155.5140 C.3     1  UNL1        0.0896
     16 C         141.6409  134.0384  155.1346 C.3     1  UNL1        0.0897
     17 N         142.6460  133.1755  155.8383 N.3     1  UNL1       -0.2682
     18 C         143.5058  133.7566  156.9215 C.3     1  UNL1        0.0897
     19 C         143.3604  135.2006  157.3009 C.3     1  UNL1        0.0896
     20 C         142.7913  131.7317  155.4589 C.3     1  UNL1        0.1043
     21 C         143.8948  130.9074  156.0532 C.3     1  UNL1        0.1544
     22 O         145.2143  130.8006  155.3481 O.3     1  UNL1       -0.3805
     23 H         145.0948  130.3304  154.5081 H       1  UNL1        0.2105
     24 C         140.9007  144.0553  157.5705 C.3     1  UNL1        0.2525
     25 O         141.3258  143.0694  158.6180 O.3     1  UNL1       -0.4705
     26 C         138.8697  143.1900  161.5033 C.ar    1  UNL1        0.2220
     27 N         138.3243  144.4616  162.0828 N.ar    1  UNL1       -0.2110
     28 C         138.5020  144.7574  163.5425 C.ar    1  UNL1        0.1160
     29 C         139.2252  143.7817  164.4229 C.ar    1  UNL1        0.1085
     30 CL        139.4029  144.0775  165.8827 Cl      1  UNL1       -0.0777
     31 C         139.7706  142.5101  163.8435 C.ar    1  UNL1        0.1472
     32 N         139.5929  142.2143  162.3837 N.ar    1  UNL1       -0.1976
     33 N         140.4938  141.5344  164.7238 N.pl3   1  UNL1       -0.2961
     34 H         141.3601  141.7793  165.1223 H       1  UNL1        0.1537
     35 C         139.8971  140.1856  164.9969 C.ar    1  UNL1        0.0644
     36 C         138.7425  140.0543  165.9454 C.ar    1  UNL1        0.0159
     37 C         138.1459  138.7054  166.2185 C.ar    1  UNL1        0.0014
     38 C         138.7038  137.4879  165.5431 C.ar    1  UNL1        0.0014
     39 C         139.8584  137.6191  164.5947 C.ar    1  UNL1        0.0174
     40 C         140.4551  138.9679  164.3215 C.ar    1  UNL1        0.0818
     41 N         141.6098  139.0992  163.3730 N.pl3   1  UNL1       -0.1931
     42 C         141.5156  139.2225  161.8811 C.3     1  UNL1        0.1174
     43 C         142.9090  139.3297  161.3360 C.3     1  UNL1        0.0507
     44 C         143.8642  139.2726  162.4911 C.3     1  UNL1        0.1745
     45 S         143.0613  139.1302  163.7500 S.O2    1  UNL1        0.0570
     46 O         144.4036  139.1315  164.4194 O.2     1  UNL1       -0.1543
     47 O         142.5390  138.9880  165.1490 O.2     1  UNL1       -0.1543
@<TRIPOS>BOND
     1    24    25    1
     2    25     3    1
     3     3     4   ar
     4     4     1    1
     5     1    26    1
     6    26    27   ar
     7    27    28   ar
     8    28    29   ar
     9    29    30    1
    10    29    31   ar
    11    31    33    1
    12    33    35    1
    13    35    36   ar
    14    36    37   ar
    15    37    38   ar
    16    38    39   ar
    17    39    40   ar
    18    40    41    1
    19    41    42    1
    20    42    43    1
    21    43    44    1
    22    44    45    1
    23    45    46    2
    24    45    47    2
    25    31    32   ar
    26     4     5   ar
    27     5     6   ar
    28     6     7   ar
    29     7     8   ar
    30     8     9    1
    31     9    10    1
    32    10    11    1
    33    11    12    1
    34    12    14    1
    35    14    15    1
    36    15    16    1
    37    16    17    1
    38    17    20    1
    39    20    21    1
    40    21    22    1
    41    17    18    1
    42    18    19    1
    43    12    13    1
    44     8     3   ar
    45    19    14    1
    46    32    26   ar
    47    13     7    1
    48    40    35   ar
    49    45    41    1
    50     1     2    1
    51    33    34    1
    52    22    23    1
@<TRIPOS>MOLECULE
*****
 47 52 0 0 0
SMALL
GASTEIGER

@<TRIPOS>ATOM
      1 N         142.8582  144.0297  161.1477 N.pl3   1  UNL1       -0.2801
      2 H         143.5616  144.6996  160.9877 H       1  UNL1        0.1552
      3 C         141.8409  142.6561  159.1909 C.ar    1  UNL1        0.1477
      4 C         142.8153  142.7761  160.3251 C.ar    1  UNL1        0.0846
      5 C         143.7469  141.6425  160.6366 C.ar    1  UNL1        0.0174
      6 C         143.7041  140.3888  159.8140 C.ar    1  UNL1       -0.0031
      7 C         142.7296  140.2689  158.6798 C.ar    1  UNL1       -0.0218
      8 C         141.7982  141.4025  158.3684 C.ar    1  UNL1        0.0091
      9 C         140.7581  141.4894  157.2909 C.3     1  UNL1        0.0292
     10 C         140.3929  140.4639  156.2588 C.3     1  UNL1        0.0062
     11 C         140.9774  139.0986  156.0493 C.3     1  UNL1        0.0166
     12 C         142.0715  138.4212  156.8201 C.3     1  UNL1        0.0619
     13 C         142.8513  138.9421  157.9908 C.3     1  UNL1        0.0421
     14 N         142.4336  137.0405  156.3593 N.3     1  UNL1       -0.2713
     15 C         142.2868  136.6698  154.9132 C.3     1  UNL1        0.0896
     16 C         142.6490  135.2890  154.4524 C.3     1  UNL1        0.0897
     17 N         143.1580  134.2789  155.4377 N.3     1  UNL1       -0.2682
     18 C         143.3048  134.6496  156.8837 C.3     1  UNL1        0.0897
     19 C         142.9426  136.0304  157.3445 C.3     1  UNL1        0.0896
     20 C         143.5201  132.8982  154.9769 C.3     1  UNL1        0.1043
     21 C         144.1190  131.9184  155.9420 C.3     1  UNL1        0.1544
     22 O         145.5547  132.0541  156.3545 O.3     1  UNL1       -0.3805
     23 H         146.1277  131.8975  155.5876 H       1  UNL1        0.2105
     24 C         141.4153  144.9963  158.1457 C.3     1  UNL1        0.2525
     25 O         140.9094  143.7898  158.8794 O.3     1  UNL1       -0.4705
     26 C         141.8292  144.2624  162.2140 C.ar    1  UNL1        0.2220
     27 N         140.6549  145.1550  161.9412 N.ar    1  UNL1       -0.2110
     28 C         139.6260  145.3878  163.0075 C.ar    1  UNL1        0.1160
     29 C         139.7714  144.7280  164.3468 C.ar    1  UNL1        0.1085
     30 CL        138.7424  144.9608  165.4131 Cl      1  UNL1       -0.0777
     31 C         140.9456  143.8354  164.6197 C.ar    1  UNL1        0.1472
     32 N         141.9746  143.6027  163.5533 N.ar    1  UNL1       -0.1976
     33 N         141.0910  143.1757  165.9589 N.pl3   1  UNL1       -0.2961
     34 H         141.6934  143.5618  166.6351 H       1  UNL1        0.1537
     35 C         140.3187  141.9276  166.2679 C.ar    1  UNL1        0.0644
     36 C         139.3186  141.4010  165.2818 C.ar    1  UNL1        0.0159
     37 C         138.5462  140.1528  165.5908 C.ar    1  UNL1        0.0014
     38 C         138.7739  139.4312  166.8859 C.ar    1  UNL1        0.0014
     39 C         139.7740  139.9578  167.8721 C.ar    1  UNL1        0.0174
     40 C         140.5464  141.2060  167.5631 C.ar    1  UNL1        0.0818
     41 N         141.5465  141.7326  168.5493 N.pl3   1  UNL1       -0.1931
     42 C         142.9407  141.2175  168.7515 C.3     1  UNL1        0.1174
     43 C         143.5839  142.0333  169.8335 C.3     1  UNL1        0.0507
     44 C         142.5871  143.0526  170.3000 C.3     1  UNL1        0.1745
     45 S         141.3280  142.8667  169.5063 S.O2    1  UNL1        0.0570
     46 O         140.8242  144.0120  170.3336 O.2     1  UNL1       -0.1543
     47 O         139.9635  142.9203  168.8856 O.2     1  UNL1       -0.1543
@<TRIPOS>BOND
     1    24    25    1
     2    25     3    1
     3     3     4   ar
     4     4     1    1
     5     1    26    1
     6    26    27   ar
     7    27    28   ar
     8    28    29   ar
     9    29    30    1
    10    29    31   ar
    11    31    33    1
    12    33    35    1
    13    35    36   ar
    14    36    37   ar
    15    37    38   ar
    16    38    39   ar
    17    39    40   ar
    18    40    41    1
    19    41    42    1
    20    42    43    1
    21    43    44    1
    22    44    45    1
    23    45    46    2
    24    45    47    2
    25    31    32   ar
    26     4     5   ar
    27     5     6   ar
    28     6     7   ar
    29     7     8   ar
    30     8     9    1
    31     9    10    1
    32    10    11    1
    33    11    12    1
    34    12    14    1
    35    14    15    1
    36    15    16    1
    37    16    17    1
    38    17    20    1
    39    20    21    1
    40    21    22    1
    41    17    18    1
    42    18    19    1
    43    12    13    1
    44     8     3   ar
    45    19    14    1
    46    32    26   ar
    47    13     7    1
    48    40    35   ar
    49    45    41    1
    50     1     2    1
    51    33    34    1
    52    22    23    1
@<TRIPOS>MOLECULE
*****
 47 52 0 0 0
SMALL
GASTEIGER

@<TRIPOS>ATOM
      1 N         141.8826  141.4518  159.2633 N.pl3   1  UNL1       -0.2801
      2 H         141.7542  140.5832  158.8180 H       1  UNL1        0.1552
      3 C         140.2623  142.6706  157.6386 C.ar    1  UNL1        0.1477
      4 C         141.4146  142.7121  158.5981 C.ar    1  UNL1        0.0846
      5 C         142.0989  144.0141  158.8923 C.ar    1  UNL1        0.0174
      6 C         141.6309  145.2745  158.2272 C.ar    1  UNL1       -0.0031
      7 C         140.4785  145.2329  157.2677 C.ar    1  UNL1       -0.0218
      8 C         139.7943  143.9310  156.9735 C.ar    1  UNL1        0.0091
      9 C         138.6362  143.6693  156.0567 C.3     1  UNL1        0.0292
     10 C         137.8765  144.6451  155.2077 C.3     1  UNL1        0.0062
     11 C         138.0871  146.1233  155.0659 C.3     1  UNL1        0.0166
     12 C         139.1095  146.9911  155.7380 C.3     1  UNL1        0.0619
     13 C         140.1738  146.5948  156.7179 C.3     1  UNL1        0.0421
     14 N         139.0613  148.4477  155.3832 N.3     1  UNL1       -0.2713
     15 C         138.4553  149.4326  156.3386 C.3     1  UNL1        0.0896
     16 C         138.4071  150.8894  155.9838 C.3     1  UNL1        0.0897
     17 N         138.9648  151.3611  154.6737 N.3     1  UNL1       -0.2682
     18 C         139.5708  150.3761  153.7183 C.3     1  UNL1        0.0897
     19 C         139.6190  148.9194  154.0731 C.3     1  UNL1        0.0896
     20 C         138.9165  152.8177  154.3189 C.3     1  UNL1        0.1043
     21 C         138.4412  153.2437  152.9615 C.3     1  UNL1        0.1544
     22 O         136.9930  153.5662  152.7410 O.3     1  UNL1       -0.3805
     23 H         136.4619  152.7624  152.8541 H       1  UNL1        0.2105
     24 C         140.1828  140.4083  156.3637 C.3     1  UNL1        0.2525
     25 O         139.5779  141.3686  157.3444 O.3     1  UNL1       -0.4705
     26 C         142.5463  141.5149  160.6070 C.ar    1  UNL1        0.2220
     27 N         144.0429  141.5417  160.7039 N.ar    1  UNL1       -0.2110
     28 C         144.7066  141.6048  162.0475 C.ar    1  UNL1        0.1160
     29 C         143.8736  141.6412  163.2945 C.ar    1  UNL1        0.1085
     30 CL        144.5372  141.7043  164.6382 Cl      1  UNL1       -0.0777
     31 C         142.3769  141.6145  163.1977 C.ar    1  UNL1        0.1472
     32 N         141.7132  141.5513  161.8540 N.ar    1  UNL1       -0.1976
     33 N         141.5438  141.6509  164.4446 N.pl3   1  UNL1       -0.2961
     34 H         141.8112  141.1221  165.2308 H       1  UNL1        0.1537
     35 C         140.3035  142.4929  164.4936 C.ar    1  UNL1        0.0644
     36 C         140.4069  143.9657  164.7582 C.ar    1  UNL1        0.0159
     37 C         139.1664  144.8078  164.8073 C.ar    1  UNL1        0.0014
     38 C         137.8228  144.1770  164.5917 C.ar    1  UNL1        0.0014
     39 C         137.7194  142.7042  164.3270 C.ar    1  UNL1        0.0174
     40 C         138.9598  141.8621  164.2780 C.ar    1  UNL1        0.0818
     41 N         138.8564  140.3892  164.0133 N.pl3   1  UNL1       -0.1931
     42 C         138.7897  139.7385  162.6634 C.3     1  UNL1        0.1174
     43 C         138.6937  138.2556  162.8680 C.3     1  UNL1        0.0507
     44 C         138.7011  137.9899  164.3442 C.3     1  UNL1        0.1745
     45 S         138.8016  139.3085  165.0521 S.O2    1  UNL1        0.0570
     46 O         138.7664  138.4667  166.2931 O.2     1  UNL1       -0.1543
     47 O         138.8948  140.4511  166.0194 O.2     1  UNL1       -0.1543
@<TRIPOS>BOND
     1    24    25    1
     2    25     3    1
     3     3     4   ar
     4     4     1    1
     5     1    26    1
     6    26    27   ar
     7    27    28   ar
     8    28    29   ar
     9    29    30    1
    10    29    31   ar
    11    31    33    1
    12    33    35    1
    13    35    36   ar
    14    36    37   ar
    15    37    38   ar
    16    38    39   ar
    17    39    40   ar
    18    40    41    1
    19    41    42    1
    20    42    43    1
    21    43    44    1
    22    44    45    1
    23    45    46    2
    24    45    47    2
    25    31    32   ar
    26     4     5   ar
    27     5     6   ar
    28     6     7   ar
    29     7     8   ar
    30     8     9    1
    31     9    10    1
    32    10    11    1
    33    11    12    1
    34    12    14    1
    35    14    15    1
    36    15    16    1
    37    16    17    1
    38    17    20    1
    39    20    21    1
    40    21    22    1
    41    17    18    1
    42    18    19    1
    43    12    13    1
    44     8     3   ar
    45    19    14    1
    46    32    26   ar
    47    13     7    1
    48    40    35   ar
    49    45    41    1
    50     1     2    1
    51    33    34    1
    52    22    23    1
@<TRIPOS>MOLECULE
*****
 47 52 0 0 0
SMALL
GASTEIGER

@<TRIPOS>ATOM
      1 N         143.5761  142.5682  161.9988 N.pl3   1  UNL1       -0.2801
      2 H         144.4683  142.9782  162.0709 H       1  UNL1        0.1552
      3 C         142.8259  141.5699  159.7205 C.ar    1  UNL1        0.1477
      4 C         143.3663  141.3806  161.1069 C.ar    1  UNL1        0.0846
      5 C         143.6969  140.0036  161.6015 C.ar    1  UNL1        0.0174
      6 C         143.4871  138.8159  160.7097 C.ar    1  UNL1       -0.0031
      7 C         142.9467  139.0052  159.3232 C.ar    1  UNL1       -0.0218
      8 C         142.6161  140.3822  158.8287 C.ar    1  UNL1        0.0091
      9 C         142.0714  140.7901  157.4919 C.3     1  UNL1        0.0292
     10 C         141.7227  139.9217  156.3196 C.3     1  UNL1        0.0062
     11 C         141.8326  138.4311  156.1945 C.3     1  UNL1        0.0166
     12 C         142.3183  137.4405  157.2108 C.3     1  UNL1        0.0619
     13 C         142.8141  137.6960  158.6032 C.3     1  UNL1        0.0421
     14 N         142.3067  136.0046  156.7774 N.3     1  UNL1       -0.2713
     15 C         141.4275  135.5709  155.6420 C.3     1  UNL1        0.0896
     16 C         141.4160  134.1348  155.2086 C.3     1  UNL1        0.0897
     17 N         142.2835  133.1325  155.9105 N.3     1  UNL1       -0.2682
     18 C         143.1627  133.5662  157.0458 C.3     1  UNL1        0.0897
     19 C         143.1743  135.0022  157.4793 C.3     1  UNL1        0.0896
     20 C         142.2719  131.6966  155.4770 C.3     1  UNL1        0.1043
     21 C         143.3838  131.1616  154.6241 C.3     1  UNL1        0.1544
     22 O         144.6828  130.7543  155.2539 O.3     1  UNL1       -0.3805
     23 H         145.1227  131.5363  155.6223 H       1  UNL1        0.2105
     24 C         141.1392  143.5320  159.4870 C.3     1  UNL1        0.2525
     25 O         142.4953  142.9469  159.2259 O.3     1  UNL1       -0.4705
     26 C         142.4266  143.1313  162.7808 C.ar    1  UNL1        0.2220
     27 N         142.2987  144.6146  162.9637 N.ar    1  UNL1       -0.2110
     28 C         141.1492  145.1776  163.7456 C.ar    1  UNL1        0.1160
     29 C         140.1274  144.2573  164.3448 C.ar    1  UNL1        0.1085
     30 CL        138.9778  144.8203  165.1268 Cl      1  UNL1       -0.0777
     31 C         140.2552  142.7739  164.1620 C.ar    1  UNL1        0.1472
     32 N         141.4047  142.2109  163.3800 N.ar    1  UNL1       -0.1976
     33 N         139.2334  141.8536  164.7611 N.pl3   1  UNL1       -0.2961
     34 H         138.6354  142.1784  165.4726 H       1  UNL1        0.1537
     35 C         139.1227  140.4385  164.2763 C.ar    1  UNL1        0.0644
     36 C         138.3755  140.1353  163.0115 C.ar    1  UNL1        0.0159
     37 C         138.2648  138.7201  162.5267 C.ar    1  UNL1        0.0014
     38 C         138.9013  137.6082  163.3066 C.ar    1  UNL1        0.0014
     39 C         139.6486  137.9113  164.5714 C.ar    1  UNL1        0.0174
     40 C         139.7593  139.3265  165.0563 C.ar    1  UNL1        0.0818
     41 N         140.5066  139.6297  166.3211 N.pl3   1  UNL1       -0.1931
     42 C         141.9859  139.8474  166.4405 C.3     1  UNL1        0.1174
     43 C         142.2993  140.1207  167.8818 C.3     1  UNL1        0.0507
     44 C         141.0136  140.0719  168.6530 C.3     1  UNL1        0.1745
     45 S         139.9057  139.7685  167.6884 S.O2    1  UNL1        0.0570
     46 O         139.0352  139.8472  168.9074 O.2     1  UNL1       -0.1543
     47 O         138.6157  139.4815  166.9787 O.2     1  UNL1       -0.1543
@<TRIPOS>BOND
     1    24    25    1
     2    25     3    1
     3     3     4   ar
     4     4     1    1
     5     1    26    1
     6    26    27   ar
     7    27    28   ar
     8    28    29   ar
     9    29    30    1
    10    29    31   ar
    11    31    33    1
    12    33    35    1
    13    35    36   ar
    14    36    37   ar
    15    37    38   ar
    16    38    39   ar
    17    39    40   ar
    18    40    41    1
    19    41    42    1
    20    42    43    1
    21    43    44    1
    22    44    45    1
    23    45    46    2
    24    45    47    2
    25    31    32   ar
    26     4     5   ar
    27     5     6   ar
    28     6     7   ar
    29     7     8   ar
    30     8     9    1
    31     9    10    1
    32    10    11    1
    33    11    12    1
    34    12    14    1
    35    14    15    1
    36    15    16    1
    37    16    17    1
    38    17    20    1
    39    20    21    1
    40    21    22    1
    41    17    18    1
    42    18    19    1
    43    12    13    1
    44     8     3   ar
    45    19    14    1
    46    32    26   ar
    47    13     7    1
    48    40    35   ar
    49    45    41    1
    50     1     2    1
    51    33    34    1
    52    22    23    1
@<TRIPOS>MOLECULE
*****
 47 52 0 0 0
SMALL
GASTEIGER

@<TRIPOS>ATOM
      1 N         139.7278  137.8332  161.7580 N.pl3   1  UNL1       -0.2801
      2 H         139.1462  137.1020  161.4477 H       1  UNL1        0.1552
      3 C         140.2893  139.5328  159.8748 C.ar    1  UNL1        0.1477
      4 C         140.7217  138.4507  160.8194 C.ar    1  UNL1        0.0846
      5 C         142.1479  137.9862  160.8255 C.ar    1  UNL1        0.0174
      6 C         143.1418  138.6037  159.8869 C.ar    1  UNL1       -0.0031
      7 C         142.7094  139.6858  158.9423 C.ar    1  UNL1       -0.0218
      8 C         141.2832  140.1502  158.9363 C.ar    1  UNL1        0.0091
      9 C         140.6474  141.2071  158.0825 C.3     1  UNL1        0.0292
     10 C         141.2809  142.0604  157.0238 C.3     1  UNL1        0.0062
     11 C         142.7065  142.0675  156.5576 C.3     1  UNL1        0.0166
     12 C         143.8508  141.2232  157.0347 C.3     1  UNL1        0.0619
     13 C         143.8522  140.1632  158.0960 C.3     1  UNL1        0.0421
     14 N         145.1680  141.4718  156.3616 N.3     1  UNL1       -0.2713
     15 C         146.2359  142.2531  157.0683 C.3     1  UNL1        0.0896
     16 C         147.5531  142.5017  156.3950 C.3     1  UNL1        0.0897
     17 N         147.8025  141.9690  155.0152 N.3     1  UNL1       -0.2682
     18 C         146.7347  141.1878  154.3084 C.3     1  UNL1        0.0897
     19 C         145.4174  140.9392  154.9817 C.3     1  UNL1        0.0896
     20 C         149.1197  142.2176  154.3420 C.3     1  UNL1        0.1043
     21 C         150.3922  141.7614  154.9922 C.3     1  UNL1        0.1544
     22 O         151.1560  140.6059  154.4167 O.3     1  UNL1       -0.3805
     23 H         150.6300  139.7955  154.5030 H       1  UNL1        0.2105
     24 C         138.4023  141.0171  160.8676 C.3     1  UNL1        0.2525
     25 O         138.8631  139.9974  159.8688 O.3     1  UNL1       -0.4705
     26 C         139.6203  138.3297  163.1694 C.ar    1  UNL1        0.2220
     27 N         138.8012  137.5710  164.1711 N.ar    1  UNL1       -0.2110
     28 C         138.6936  138.0675  165.5824 C.ar    1  UNL1        0.1160
     29 C         139.4052  139.3228  165.9921 C.ar    1  UNL1        0.1085
     30 CL        139.2977  139.8194  167.4034 Cl      1  UNL1       -0.0777
     31 C         140.2244  140.0816  164.9904 C.ar    1  UNL1        0.1472
     32 N         140.3319  139.5851  163.5791 N.ar    1  UNL1       -0.1976
     33 N         140.9360  141.3369  165.4000 N.pl3   1  UNL1       -0.2961
     34 H         141.6568  141.2981  166.0694 H       1  UNL1        0.1537
     35 C         140.5494  142.6514  164.7897 C.ar    1  UNL1        0.0644
     36 C         139.2939  143.3432  165.2317 C.ar    1  UNL1        0.0159
     37 C         138.9073  144.6578  164.6214 C.ar    1  UNL1        0.0014
     38 C         139.7761  145.2806  163.5692 C.ar    1  UNL1        0.0014
     39 C         141.0316  144.5889  163.1272 C.ar    1  UNL1        0.0174
     40 C         141.4182  143.2743  163.7375 C.ar    1  UNL1        0.0818
     41 N         142.6737  142.5826  163.2955 N.pl3   1  UNL1       -0.1931
     42 C         142.8242  141.7235  162.0751 C.3     1  UNL1        0.1174
     43 C         144.2426  141.2385  162.0218 C.3     1  UNL1        0.0507
     44 C         144.9687  141.7978  163.2093 C.3     1  UNL1        0.1745
     45 S         143.9991  142.6284  163.9964 S.O2    1  UNL1        0.0570
     46 O         145.1730  142.8580  164.9015 O.2     1  UNL1       -0.1543
     47 O         143.2749  143.5071  164.9729 O.2     1  UNL1       -0.1543
@<TRIPOS>BOND
     1    24    25    1
     2    25     3    1
     3     3     4   ar
     4     4     1    1
     5     1    26    1
     6    26    27   ar
     7    27    28   ar
     8    28    29   ar
     9    29    30    1
    10    29    31   ar
    11    31    33    1
    12    33    35    1
    13    35    36   ar
    14    36    37   ar
    15    37    38   ar
    16    38    39   ar
    17    39    40   ar
    18    40    41    1
    19    41    42    1
    20    42    43    1
    21    43    44    1
    22    44    45    1
    23    45    46    2
    24    45    47    2
    25    31    32   ar
    26     4     5   ar
    27     5     6   ar
    28     6     7   ar
    29     7     8   ar
    30     8     9    1
    31     9    10    1
    32    10    11    1
    33    11    12    1
    34    12    14    1
    35    14    15    1
    36    15    16    1
    37    16    17    1
    38    17    20    1
    39    20    21    1
    40    21    22    1
    41    17    18    1
    42    18    19    1
    43    12    13    1
    44     8     3   ar
    45    19    14    1
    46    32    26   ar
    47    13     7    1
    48    40    35   ar
    49    45    41    1
    50     1     2    1
    51    33    34    1
    52    22    23    1
@<TRIPOS>MOLECULE
*****
 47 52 0 0 0
SMALL
GASTEIGER

@<TRIPOS>ATOM
      1 N         143.5607  142.6033  161.8139 N.pl3   1  UNL1       -0.2801
      2 H         144.4480  143.0232  161.8883 H       1  UNL1        0.1552
      3 C         142.6618  141.4749  159.6531 C.ar    1  UNL1        0.1477
      4 C         143.3792  141.3786  160.9669 C.ar    1  UNL1        0.0846
      5 C         143.9151  140.0577  161.4339 C.ar    1  UNL1        0.0174
      6 C         143.7336  138.8330  160.5869 C.ar    1  UNL1       -0.0031
      7 C         143.0163  138.9293  159.2731 C.ar    1  UNL1       -0.0218
      8 C         142.4804  140.2502  158.8062 C.ar    1  UNL1        0.0091
      9 C         141.7406  140.5645  157.5397 C.3     1  UNL1        0.0292
     10 C         141.3539  139.6353  156.4273 C.3     1  UNL1        0.0062
     11 C         141.6116  138.1626  156.3068 C.3     1  UNL1        0.0166
     12 C         142.3196  137.2551  157.2687 C.3     1  UNL1        0.0619
     13 C         142.9447  137.5963  158.5889 C.3     1  UNL1        0.0421
     14 N         142.4150  135.8163  156.8560 N.3     1  UNL1       -0.2713
     15 C         141.5823  135.3057  155.7176 C.3     1  UNL1        0.0896
     16 C         141.6777  133.8667  155.3048 C.3     1  UNL1        0.0897
     17 N         142.6059  132.9383  156.0304 N.3     1  UNL1       -0.2682
     18 C         143.4386  133.4488  157.1689 C.3     1  UNL1        0.0897
     19 C         143.3432  134.8878  157.5816 C.3     1  UNL1        0.0896
     20 C         142.7013  131.4994  155.6177 C.3     1  UNL1        0.1043
     21 C         143.9025  131.0141  154.8615 C.3     1  UNL1        0.1544
     22 O         145.2248  130.8844  155.5576 O.3     1  UNL1       -0.3805
     23 H         145.5411  131.7638  155.8175 H       1  UNL1        0.2105
     24 C         142.9776  143.6931  158.3381 C.3     1  UNL1        0.2525
     25 O         142.1259  142.7958  159.1861 O.3     1  UNL1       -0.4705
     26 C         142.3902  143.1880  162.5474 C.ar    1  UNL1        0.2220
     27 N         142.0385  144.6350  162.3668 N.ar    1  UNL1       -0.2110
     28 C         140.8681  145.2197  163.1002 C.ar    1  UNL1        0.1160
     29 C         140.0491  144.3574  164.0145 C.ar    1  UNL1        0.1085
     30 CL        138.8786  144.9421  164.7480 Cl      1  UNL1       -0.0777
     31 C         140.4007  142.9104  164.1952 C.ar    1  UNL1        0.1472
     32 N         141.5712  142.3257  163.4617 N.ar    1  UNL1       -0.1976
     33 N         139.5818  142.0481  165.1094 N.pl3   1  UNL1       -0.2961
     34 H         138.7260  141.6741  164.7978 H       1  UNL1        0.1537
     35 C         140.0667  141.7554  166.4983 C.ar    1  UNL1        0.0644
     36 C         140.3500  142.8824  167.4468 C.ar    1  UNL1        0.0159
     37 C         140.8349  142.5897  168.8358 C.ar    1  UNL1        0.0014
     38 C         141.0365  141.1702  169.2763 C.ar    1  UNL1        0.0014
     39 C         140.7532  140.0432  168.3278 C.ar    1  UNL1        0.0174
     40 C         140.2683  140.3358  166.9388 C.ar    1  UNL1        0.0818
     41 N         139.9850  139.2088  165.9903 N.pl3   1  UNL1       -0.1931
     42 C         138.6890  138.4633  165.8688 C.3     1  UNL1        0.1174
     43 C         138.8511  137.4232  164.8002 C.3     1  UNL1        0.0507
     44 C         140.2471  137.5259  164.2613 C.3     1  UNL1        0.1745
     45 S         140.9479  138.6294  164.9968 S.O2    1  UNL1        0.0570
     46 O         142.1080  138.2649  164.1186 O.2     1  UNL1       -0.1543
     47 O         141.8913  139.6568  165.5487 O.2     1  UNL1       -0.1543
@<TRIPOS>BOND
     1    24    25    1
     2    25     3    1
     3     3     4   ar
     4     4     1    1
     5     1    26    1
     6    26    27   ar
     7    27    28   ar
     8    28    29   ar
     9    29    30    1
    10    29    31   ar
    11    31    33    1
    12    33    35    1
    13    35    36   ar
    14    36    37   ar
    15    37    38   ar
    16    38    39   ar
    17    39    40   ar
    18    40    41    1
    19    41    42    1
    20    42    43    1
    21    43    44    1
    22    44    45    1
    23    45    46    2
    24    45    47    2
    25    31    32   ar
    26     4     5   ar
    27     5     6   ar
    28     6     7   ar
    29     7     8   ar
    30     8     9    1
    31     9    10    1
    32    10    11    1
    33    11    12    1
    34    12    14    1
    35    14    15    1
    36    15    16    1
    37    16    17    1
    38    17    20    1
    39    20    21    1
    40    21    22    1
    41    17    18    1
    42    18    19    1
    43    12    13    1
    44     8     3   ar
    45    19    14    1
    46    32    26   ar
    47    13     7    1
    48    40    35   ar
    49    45    41    1
    50     1     2    1
    51    33    34    1
    52    22    23    1
@<TRIPOS>MOLECULE
*****
 47 52 0 0 0
SMALL
GASTEIGER

@<TRIPOS>ATOM
      1 N         143.1037  138.4174  157.9103 N.pl3   1  UNL1       -0.2801
      2 H         142.9805  137.5476  157.4659 H       1  UNL1        0.1552
      3 C         141.2433  138.3565  159.7229 C.ar    1  UNL1        0.1477
      4 C         142.6718  138.5994  159.3352 C.ar    1  UNL1        0.0846
      5 C         143.6686  139.0243  160.3725 C.ar    1  UNL1        0.0174
      6 C         143.2368  139.2063  161.7975 C.ar    1  UNL1       -0.0031
      7 C         141.8082  138.9634  162.1851 C.ar    1  UNL1       -0.0218
      8 C         140.8115  138.5386  161.1478 C.ar    1  UNL1        0.0091
      9 C         139.3502  138.2462  161.3192 C.3     1  UNL1        0.0292
     10 C         138.5249  138.3065  162.5704 C.3     1  UNL1        0.0062
     11 C         138.9569  138.6741  163.9589 C.3     1  UNL1        0.0166
     12 C         140.3210  139.0721  164.4394 C.3     1  UNL1        0.0619
     13 C         141.5899  139.2009  163.6500 C.3     1  UNL1        0.0421
     14 N         140.4306  139.3824  165.9029 N.3     1  UNL1       -0.2713
     15 C         139.1900  139.5824  166.7221 C.3     1  UNL1        0.0896
     16 C         139.2997  139.8927  168.1856 C.3     1  UNL1        0.0897
     17 N         140.6498  140.0029  168.8299 N.3     1  UNL1       -0.2682
     18 C         141.8903  139.8029  168.0106 C.3     1  UNL1        0.0897
     19 C         141.7807  139.4926  166.5471 C.3     1  UNL1        0.0896
     20 C         140.7594  140.3132  170.2933 C.3     1  UNL1        0.1043
     21 C         140.9055  141.7346  170.7497 C.3     1  UNL1        0.1544
     22 O         140.6112  142.0987  172.1747 O.3     1  UNL1       -0.3805
     23 H         139.6670  141.9670  172.3537 H       1  UNL1        0.2105
     24 C         139.6540  138.9474  157.7544 C.3     1  UNL1        0.2525
     25 O         140.2465  137.9317  158.6856 O.3     1  UNL1       -0.4705
     26 C         143.7232  139.5607  157.1626 C.ar    1  UNL1        0.2220
     27 N         144.6904  139.2917  156.0479 N.ar    1  UNL1       -0.2110
     28 C         145.3099  140.4349  155.3003 C.ar    1  UNL1        0.1160
     29 C         144.9624  141.8472  155.6672 C.ar    1  UNL1        0.1085
     30 CL        145.5819  142.9905  154.9195 Cl      1  UNL1       -0.0777
     31 C         143.9953  142.1163  156.7818 C.ar    1  UNL1        0.1472
     32 N         143.3757  140.9730  157.5296 N.ar    1  UNL1       -0.1976
     33 N         143.6477  143.5286  157.1488 N.pl3   1  UNL1       -0.2961
     34 H         144.2130  144.0256  157.7834 H       1  UNL1        0.1537
     35 C         142.4390  144.1835  156.5490 C.ar    1  UNL1        0.0644
     36 C         142.5273  144.8250  155.1960 C.ar    1  UNL1        0.0159
     37 C         141.3184  145.4800  154.5962 C.ar    1  UNL1        0.0014
     38 C         140.0214  145.4936  155.3494 C.ar    1  UNL1        0.0014
     39 C         139.9330  144.8522  156.7024 C.ar    1  UNL1        0.0174
     40 C         141.1418  144.1971  157.3023 C.ar    1  UNL1        0.0818
     41 N         141.0535  143.5556  158.6553 N.pl3   1  UNL1       -0.1931
     42 C         140.4355  142.2235  158.9609 C.3     1  UNL1        0.1174
     43 C         140.5678  141.9783  160.4348 C.3     1  UNL1        0.0507
     44 C         141.2676  143.1589  161.0401 C.3     1  UNL1        0.1745
     45 S         141.5678  144.1337  159.9404 S.O2    1  UNL1        0.0570
     46 O         142.1712  144.9514  161.0437 O.2     1  UNL1       -0.1543
     47 O         141.9942  145.2796  159.0713 O.2     1  UNL1       -0.1543
@<TRIPOS>BOND
     1    24    25    1
     2    25     3    1
     3     3     4   ar
     4     4     1    1
     5     1    26    1
     6    26    27   ar
     7    27    28   ar
     8    28    29   ar
     9    29    30    1
    10    29    31   ar
    11    31    33    1
    12    33    35    1
    13    35    36   ar
    14    36    37   ar
    15    37    38   ar
    16    38    39   ar
    17    39    40   ar
    18    40    41    1
    19    41    42    1
    20    42    43    1
    21    43    44    1
    22    44    45    1
    23    45    46    2
    24    45    47    2
    25    31    32   ar
    26     4     5   ar
    27     5     6   ar
    28     6     7   ar
    29     7     8   ar
    30     8     9    1
    31     9    10    1
    32    10    11    1
    33    11    12    1
    34    12    14    1
    35    14    15    1
    36    15    16    1
    37    16    17    1
    38    17    20    1
    39    20    21    1
    40    21    22    1
    41    17    18    1
    42    18    19    1
    43    12    13    1
    44     8     3   ar
    45    19    14    1
    46    32    26   ar
    47    13     7    1
    48    40    35   ar
    49    45    41    1
    50     1     2    1
    51    33    34    1
    52    22    23    1
@<TRIPOS>MOLECULE
*****
 47 52 0 0 0
SMALL
GASTEIGER

@<TRIPOS>ATOM
      1 N         139.0703  138.5488  160.8198 N.pl3   1  UNL1       -0.2801
      2 H         139.0444  137.6751  160.3667 H       1  UNL1        0.1552
      3 C         140.6769  140.3234  159.8100 C.ar    1  UNL1        0.1477
      4 C         139.2870  139.8009  160.0229 C.ar    1  UNL1        0.0846
      5 C         138.1138  140.5306  159.4388 C.ar    1  UNL1        0.0174
      6 C         138.3304  141.7828  158.6418 C.ar    1  UNL1       -0.0031
      7 C         139.7204  142.3052  158.4289 C.ar    1  UNL1       -0.0218
      8 C         140.8935  141.5756  159.0130 C.ar    1  UNL1        0.0091
      9 C         142.3502  141.9217  158.9214 C.3     1  UNL1        0.0292
     10 C         142.9934  143.0830  158.2229 C.3     1  UNL1        0.0062
     11 C         142.3388  144.1849  157.4437 C.3     1  UNL1        0.0166
     12 C         140.8793  144.3978  157.1704 C.3     1  UNL1        0.0619
     13 C         139.7140  143.5612  157.6089 C.3     1  UNL1        0.0421
     14 N         140.5403  145.6070  156.3503 N.3     1  UNL1       -0.2713
     15 C         139.5857  146.6328  156.8856 C.3     1  UNL1        0.0896
     16 C         139.2467  147.8421  156.0653 C.3     1  UNL1        0.0897
     17 N         139.8624  148.0257  154.7099 N.3     1  UNL1       -0.2682
     18 C         140.8171  146.9999  154.1746 C.3     1  UNL1        0.0897
     19 C         141.1560  145.7906  154.9948 C.3     1  UNL1        0.0896
     20 C         139.5235  149.2350  153.8897 C.3     1  UNL1        0.1043
     21 C         139.4372  150.5832  154.5416 C.3     1  UNL1        0.1544
     22 O         140.5939  151.1050  155.3413 O.3     1  UNL1       -0.3805
     23 H         140.7185  150.5519  156.1283 H       1  UNL1        0.2105
     24 C         142.4214  138.4023  159.6842 C.3     1  UNL1        0.2525
     25 O         141.8501  139.5938  160.3941 O.3     1  UNL1       -0.4705
     26 C         138.8931  138.6278  162.3072 C.ar    1  UNL1        0.2220
     27 N         139.0271  137.3909  163.1453 N.ar    1  UNL1       -0.2110
     28 C         138.8499  137.4699  164.6327 C.ar    1  UNL1        0.1160
     29 C         138.5387  138.7858  165.2821 C.ar    1  UNL1        0.1085
     30 CL        138.3614  138.8647  166.7695 Cl      1  UNL1       -0.0777
     31 C         138.4046  140.0226  164.4441 C.ar    1  UNL1        0.1472
     32 N         138.5818  139.9436  162.9566 N.ar    1  UNL1       -0.1976
     33 N         138.0933  141.3385  165.0934 N.pl3   1  UNL1       -0.2961
     34 H         137.5234  141.3689  165.8956 H       1  UNL1        0.1537
     35 C         138.6503  142.6079  164.5205 C.ar    1  UNL1        0.0644
     36 C         137.7883  143.4846  163.6613 C.ar    1  UNL1        0.0159
     37 C         138.3453  144.7541  163.0885 C.ar    1  UNL1        0.0014
     38 C         139.7643  145.1468  163.3748 C.ar    1  UNL1        0.0014
     39 C         140.6264  144.2702  164.2339 C.ar    1  UNL1        0.0174
     40 C         140.0694  143.0006  164.8069 C.ar    1  UNL1        0.0818
     41 N         140.9315  142.1239  165.6660 N.pl3   1  UNL1       -0.1931
     42 C         141.8807  141.0701  165.1776 C.3     1  UNL1        0.1174
     43 C         142.5315  140.4420  166.3743 C.3     1  UNL1        0.0507
     44 C         141.9845  141.1076  167.6022 C.3     1  UNL1        0.1745
     45 S         140.9957  142.1470  167.1645 S.O2    1  UNL1        0.0570
     46 O         140.8466  142.3985  168.6357 O.2     1  UNL1       -0.1543
     47 O         139.9756  143.2391  167.0344 O.2     1  UNL1       -0.1543
@<TRIPOS>BOND
     1    24    25    1
     2    25     3    1
     3     3     4   ar
     4     4     1    1
     5     1    26    1
     6    26    27   ar
     7    27    28   ar
     8    28    29   ar
     9    29    30    1
    10    29    31   ar
    11    31    33    1
    12    33    35    1
    13    35    36   ar
    14    36    37   ar
    15    37    38   ar
    16    38    39   ar
    17    39    40   ar
    18    40    41    1
    19    41    42    1
    20    42    43    1
    21    43    44    1
    22    44    45    1
    23    45    46    2
    24    45    47    2
    25    31    32   ar
    26     4     5   ar
    27     5     6   ar
    28     6     7   ar
    29     7     8   ar
    30     8     9    1
    31     9    10    1
    32    10    11    1
    33    11    12    1
    34    12    14    1
    35    14    15    1
    36    15    16    1
    37    16    17    1
    38    17    20    1
    39    20    21    1
    40    21    22    1
    41    17    18    1
    42    18    19    1
    43    12    13    1
    44     8     3   ar
    45    19    14    1
    46    32    26   ar
    47    13     7    1
    48    40    35   ar
    49    45    41    1
    50     1     2    1
    51    33    34    1
    52    22    23    1
