@<TRIPOS>MOLECULE
*****
 30 34 0 0 0
SMALL
GASTEIGER

@<TRIPOS>ATOM
      1 C         138.1950  139.3009  165.8979 C.3     1  UNL1        0.0002
      2 C         137.7253  138.3503  166.9589 C.3     1  UNL1        0.0001
      3 C         138.6677  139.4626  167.3122 C.3     1  UNL1        0.0037
      4 N         138.1897  140.6674  161.6104 N.pl3   1  UNL1       -0.2782
      5 C         138.7054  139.3035  161.9622 C.3     1  UNL1        0.0936
      6 C         138.7071  138.8480  163.3914 C.3     1  UNL1        0.0216
      7 C         138.1932  139.7564  164.4687 C.3     1  UNL1        0.0034
      8 C         137.6776  141.1203  164.1169 C.3     1  UNL1        0.0216
      9 C         137.6759  141.5758  162.6877 C.3     1  UNL1        0.0936
     10 CL        138.1827  142.4894  155.8937 Cl      1  UNL1       -0.0790
     11 C         138.1845  142.0339  157.3229 C.ar    1  UNL1        0.0960
     12 C         137.8573  140.6085  157.6561 C.ar    1  UNL1        0.1147
     13 N         137.8590  140.1530  159.0853 N.ar    1  UNL1       -0.2112
     14 C         138.1880  141.1229  160.1812 C.ar    1  UNL1        0.2202
     15 N         138.5152  142.5483  159.8479 N.ar    1  UNL1       -0.2112
     16 C         138.5134  143.0038  158.4188 C.ar    1  UNL1        0.1147
     17 C         139.4847  140.1980  168.3328 C.3     1  UNL1        0.0473
     18 C         140.9470  140.4330  168.0952 C.3     1  UNL1        0.2054
     19 O         141.5270  140.2283  166.7271 O.3     1  UNL1       -0.4755
     20 C         141.2689  141.2343  165.6448 C.ar    1  UNL1        0.1386
     21 C         141.6370  140.9197  164.2251 C.ar    1  UNL1        0.0384
     22 C         141.3789  141.9256  163.1428 C.ar    1  UNL1        0.0223
     23 C         140.7526  143.2462  163.4802 C.ar    1  UNL1        0.0847
     24 C         140.3845  143.5608  164.8999 C.ar    1  UNL1        0.0223
     25 C         140.6426  142.5549  165.9822 C.ar    1  UNL1        0.0384
     26 N         140.4945  144.2522  162.3979 N.ar    1  UNL1       -0.2089
     27 C         141.2816  144.4050  161.1301 C.ar    1  UNL1        0.1245
     28 C         140.6775  145.5292  160.3421 C.ar    1  UNL1        0.1445
     29 N         139.5171  146.0713  161.1228 N.ar    1  UNL1       -0.1268
     30 N         139.4040  145.2820  162.3933 N.ar    1  UNL1       -0.0595
@<TRIPOS>BOND
     1    10    11    1
     2    11    12   ar
     3    12    13   ar
     4    13    14   ar
     5    14     4    1
     6     4     5    1
     7     5     6    1
     8     6     7    1
     9     1     7    1
    10     1     2    1
    11     2     3    1
    12     3    17    1
    13    17    18    1
    14    18    19    1
    15    19    20    1
    16    20    21   ar
    17    21    22   ar
    18    22    23   ar
    19    23    26    1
    20    26    27   ar
    21    27    28   ar
    22    28    29   ar
    23    29    30   ar
    24    23    24   ar
    25    24    25   ar
    26     7     8    1
    27     8     9    1
    28    14    15   ar
    29    15    16   ar
    30    16    11   ar
    31     9     4    1
    32     3     1    1
    33    25    20   ar
    34    30    26   ar
@<TRIPOS>MOLECULE
*****
 30 34 0 0 0
SMALL
GASTEIGER

@<TRIPOS>ATOM
      1 C         138.8942  139.9554  166.3241 C.3     1  UNL1        0.0002
      2 C         138.1619  138.7743  166.8887 C.3     1  UNL1        0.0001
      3 C         138.9082  139.7008  167.8023 C.3     1  UNL1        0.0037
      4 N         140.1384  142.4421  162.7860 N.pl3   1  UNL1       -0.2782
      5 C         139.9531  140.9614  162.6341 C.3     1  UNL1        0.0936
      6 C         139.5383  140.1325  163.8134 C.3     1  UNL1        0.0216
      7 C         139.3089  140.7843  165.1448 C.3     1  UNL1        0.0034
      8 C         139.4943  142.2650  165.2967 C.3     1  UNL1        0.0216
      9 C         139.9090  143.0939  164.1174 C.3     1  UNL1        0.0936
     10 CL        141.7974  145.7577  158.0685 Cl      1  UNL1       -0.0790
     11 C         141.3826  144.9288  159.2479 C.ar    1  UNL1        0.0960
     12 C         141.8331  143.5023  159.3576 C.ar    1  UNL1        0.1147
     13 N         141.4184  142.6734  160.5370 N.ar    1  UNL1       -0.2112
     14 C         140.5532  143.2710  161.6067 C.ar    1  UNL1        0.2202
     15 N         140.1027  144.6975  161.4969 N.ar    1  UNL1       -0.2112
     16 C         140.5174  145.5264  160.3176 C.ar    1  UNL1        0.1147
     17 C         139.3471  140.0887  169.1831 C.3     1  UNL1        0.0473
     18 C         140.8071  140.2440  169.4902 C.3     1  UNL1        0.2054
     19 O         141.8304  139.5551  168.6368 O.3     1  UNL1       -0.4755
     20 C         142.3356  140.2175  167.3894 C.ar    1  UNL1        0.1386
     21 C         142.5661  141.6996  167.3679 C.ar    1  UNL1        0.0384
     22 C         143.0713  142.3620  166.1206 C.ar    1  UNL1        0.0223
     23 C         143.3460  141.5424  164.8947 C.ar    1  UNL1        0.0847
     24 C         143.1155  140.0604  164.9162 C.ar    1  UNL1        0.0223
     25 C         142.6103  139.3980  166.1635 C.ar    1  UNL1        0.0384
     26 N         143.8512  142.2049  163.6473 N.ar    1  UNL1       -0.2089
     27 C         144.5159  141.5178  162.4914 C.ar    1  UNL1        0.1245
     28 C         144.8559  142.5590  161.4666 C.ar    1  UNL1        0.1445
     29 N         144.4014  143.8895  161.9891 N.ar    1  UNL1       -0.1268
     30 N         143.7804  143.6706  163.3369 N.ar    1  UNL1       -0.0595
@<TRIPOS>BOND
     1    10    11    1
     2    11    12   ar
     3    12    13   ar
     4    13    14   ar
     5    14     4    1
     6     4     5    1
     7     5     6    1
     8     6     7    1
     9     1     7    1
    10     1     2    1
    11     2     3    1
    12     3    17    1
    13    17    18    1
    14    18    19    1
    15    19    20    1
    16    20    21   ar
    17    21    22   ar
    18    22    23   ar
    19    23    26    1
    20    26    27   ar
    21    27    28   ar
    22    28    29   ar
    23    29    30   ar
    24    23    24   ar
    25    24    25   ar
    26     7     8    1
    27     8     9    1
    28    14    15   ar
    29    15    16   ar
    30    16    11   ar
    31     9     4    1
    32     3     1    1
    33    25    20   ar
    34    30    26   ar
@<TRIPOS>MOLECULE
*****
 30 34 0 0 0
SMALL
GASTEIGER

@<TRIPOS>ATOM
      1 C         142.4123  139.6632  168.5252 C.3     1  UNL1        0.0002
      2 C         142.9232  139.3956  169.9098 C.3     1  UNL1        0.0001
      3 C         141.4767  139.7297  169.6957 C.3     1  UNL1        0.0037
      4 N         143.1478  140.0113  164.0994 N.pl3   1  UNL1       -0.2782
      5 C         142.9050  138.6655  164.7157 C.3     1  UNL1        0.0936
      6 C         142.6598  138.5495  166.1910 C.3     1  UNL1        0.0216
      7 C         142.6574  139.7792  167.0499 C.3     1  UNL1        0.0034
      8 C         142.9003  141.1250  166.4335 C.3     1  UNL1        0.0216
      9 C         143.1454  141.2410  164.9583 C.3     1  UNL1        0.0936
     10 CL        144.1285  140.4755  158.1983 Cl      1  UNL1       -0.0790
     11 C         143.8833  140.3594  159.6735 C.ar    1  UNL1        0.0960
     12 C         143.5956  141.5878  160.4849 C.ar    1  UNL1        0.1147
     13 N         143.3504  141.4717  161.9602 N.ar    1  UNL1       -0.2112
     14 C         143.3930  140.1273  162.6241 C.ar    1  UNL1        0.2202
     15 N         143.6807  138.8990  161.8127 N.ar    1  UNL1       -0.2112
     16 C         143.9259  139.0151  160.3374 C.ar    1  UNL1        0.1147
     17 C         140.1014  139.9611  170.2479 C.3     1  UNL1        0.0473
     18 C         138.9743  140.3233  169.3266 C.3     1  UNL1        0.2054
     19 O         138.3627  139.2772  168.4425 O.3     1  UNL1       -0.4755
     20 C         138.7085  139.2326  166.9835 C.ar    1  UNL1        0.1386
     21 C         139.1973  140.4698  166.2904 C.ar    1  UNL1        0.0384
     22 C         139.5431  140.4252  164.8316 C.ar    1  UNL1        0.0223
     23 C         139.4002  139.1434  164.0658 C.ar    1  UNL1        0.0847
     24 C         138.9115  137.9062  164.7589 C.ar    1  UNL1        0.0223
     25 C         138.5656  137.9508  166.2178 C.ar    1  UNL1        0.0384
     26 N         139.7461  139.0987  162.6068 N.ar    1  UNL1       -0.2089
     27 C         139.8607  140.2814  161.6913 C.ar    1  UNL1        0.1245
     28 C         140.2235  139.7771  160.3260 C.ar    1  UNL1        0.1445
     29 N         140.3330  138.2829  160.3977 N.ar    1  UNL1       -0.1268
     30 N         140.0379  137.8637  161.8074 N.ar    1  UNL1       -0.0595
@<TRIPOS>BOND
     1    10    11    1
     2    11    12   ar
     3    12    13   ar
     4    13    14   ar
     5    14     4    1
     6     4     5    1
     7     5     6    1
     8     6     7    1
     9     1     7    1
    10     1     2    1
    11     2     3    1
    12     3    17    1
    13    17    18    1
    14    18    19    1
    15    19    20    1
    16    20    21   ar
    17    21    22   ar
    18    22    23   ar
    19    23    26    1
    20    26    27   ar
    21    27    28   ar
    22    28    29   ar
    23    29    30   ar
    24    23    24   ar
    25    24    25   ar
    26     7     8    1
    27     8     9    1
    28    14    15   ar
    29    15    16   ar
    30    16    11   ar
    31     9     4    1
    32     3     1    1
    33    25    20   ar
    34    30    26   ar
@<TRIPOS>MOLECULE
*****
 30 34 0 0 0
SMALL
GASTEIGER

@<TRIPOS>ATOM
      1 C         139.0428  140.2843  168.7355 C.3     1  UNL1        0.0002
      2 C         138.4953  139.9190  170.0834 C.3     1  UNL1        0.0001
      3 C         139.4625  141.0578  169.9502 C.3     1  UNL1        0.0037
      4 N         139.2639  139.5772  164.2969 N.pl3   1  UNL1       -0.2782
      5 C         138.6954  138.5208  165.1972 C.3     1  UNL1        0.0936
      6 C         138.6217  138.7565  166.6768 C.3     1  UNL1        0.0216
      7 C         139.1165  140.0486  167.2560 C.3     1  UNL1        0.0034
      8 C         139.6850  141.1051  166.3556 C.3     1  UNL1        0.0216
      9 C         139.7587  140.8694  164.8761 C.3     1  UNL1        0.0936
     10 CL        139.5587  138.6345  158.3788 Cl      1  UNL1       -0.0790
     11 C         139.4850  138.8702  159.8583 C.ar    1  UNL1        0.0960
     12 C         140.7034  138.6735  160.7107 C.ar    1  UNL1        0.1147
     13 N         140.6297  138.9092  162.1902 N.ar    1  UNL1       -0.2112
     14 C         139.3376  139.3416  162.8174 C.ar    1  UNL1        0.2202
     15 N         138.1191  139.5383  161.9650 N.ar    1  UNL1       -0.2112
     16 C         138.1928  139.3026  160.4854 C.ar    1  UNL1        0.1147
     17 C         140.2633  142.1618  170.5746 C.3     1  UNL1        0.0473
     18 C         141.7589  142.0628  170.6333 C.3     1  UNL1        0.2054
     19 O         142.4535  140.8582  170.0708 O.3     1  UNL1       -0.4755
     20 C         142.7141  140.7629  168.5967 C.ar    1  UNL1        0.1386
     21 C         142.7012  139.4254  167.9177 C.ar    1  UNL1        0.0384
     22 C         142.9617  139.3301  166.4436 C.ar    1  UNL1        0.0223
     23 C         143.2352  140.5722  165.6485 C.ar    1  UNL1        0.0847
     24 C         143.2481  141.9097  166.3274 C.ar    1  UNL1        0.0223
     25 C         142.9875  142.0050  167.8015 C.ar    1  UNL1        0.0384
     26 N         143.4958  140.4769  164.1743 N.ar    1  UNL1       -0.2089
     27 C         143.1414  141.5114  163.1476 C.ar    1  UNL1        0.1245
     28 C         143.5831  141.0042  161.8069 C.ar    1  UNL1        0.1445
     29 N         144.2104  139.6562  162.0050 N.ar    1  UNL1       -0.1268
     30 N         144.1564  139.3303  163.4681 N.ar    1  UNL1       -0.0595
@<TRIPOS>BOND
     1    10    11    1
     2    11    12   ar
     3    12    13   ar
     4    13    14   ar
     5    14     4    1
     6     4     5    1
     7     5     6    1
     8     6     7    1
     9     1     7    1
    10     1     2    1
    11     2     3    1
    12     3    17    1
    13    17    18    1
    14    18    19    1
    15    19    20    1
    16    20    21   ar
    17    21    22   ar
    18    22    23   ar
    19    23    26    1
    20    26    27   ar
    21    27    28   ar
    22    28    29   ar
    23    29    30   ar
    24    23    24   ar
    25    24    25   ar
    26     7     8    1
    27     8     9    1
    28    14    15   ar
    29    15    16   ar
    30    16    11   ar
    31     9     4    1
    32     3     1    1
    33    25    20   ar
    34    30    26   ar
@<TRIPOS>MOLECULE
*****
 30 34 0 0 0
SMALL
GASTEIGER

@<TRIPOS>ATOM
      1 C         138.5851  139.6272  166.0983 C.3     1  UNL1        0.0002
      2 C         137.7597  138.7579  166.9999 C.3     1  UNL1        0.0001
      3 C         138.8837  139.5731  167.5673 C.3     1  UNL1        0.0037
      4 N         139.4976  141.2266  161.9923 N.pl3   1  UNL1       -0.2782
      5 C         138.1739  141.5194  162.6342 C.3     1  UNL1        0.0936
      6 C         137.8698  140.9862  164.0028 C.3     1  UNL1        0.0216
      7 C         138.8893  140.1603  164.7297 C.3     1  UNL1        0.0034
      8 C         140.2130  139.8675  164.0878 C.3     1  UNL1        0.0216
      9 C         140.5172  140.4007  162.7192 C.3     1  UNL1        0.0936
     10 CL        140.7143  143.3591  156.5176 Cl      1  UNL1       -0.0790
     11 C         140.4102  142.8259  157.8863 C.ar    1  UNL1        0.0960
     12 C         139.0383  142.9945  158.4690 C.ar    1  UNL1        0.1147
     13 N         138.7342  142.4614  159.8377 N.ar    1  UNL1       -0.2112
     14 C         139.8018  141.7597  160.6237 C.ar    1  UNL1        0.2202
     15 N         141.1737  141.5912  160.0409 N.ar    1  UNL1       -0.2112
     16 C         141.4778  142.1243  158.6722 C.ar    1  UNL1        0.1147
     17 C         139.7051  140.0126  168.7429 C.3     1  UNL1        0.0473
     18 C         141.1752  140.2621  168.5796 C.3     1  UNL1        0.2054
     19 O         141.6799  141.6589  168.3691 O.3     1  UNL1       -0.4755
     20 C         141.5396  142.3127  167.0263 C.ar    1  UNL1        0.1386
     21 C         140.2589  143.0010  166.6575 C.ar    1  UNL1        0.0384
     22 C         140.1185  143.6548  165.3148 C.ar    1  UNL1        0.0223
     23 C         141.2589  143.6204  164.3410 C.ar    1  UNL1        0.0847
     24 C         142.5396  142.9321  164.7099 C.ar    1  UNL1        0.0223
     25 C         142.6800  142.2783  166.0525 C.ar    1  UNL1        0.0384
     26 N         141.1186  144.2742  162.9983 N.ar    1  UNL1       -0.2089
     27 C         139.9122  145.0125  162.4989 C.ar    1  UNL1        0.1245
     28 C         140.2081  145.4991  161.1112 C.ar    1  UNL1        0.1445
     29 N         141.5974  145.0616  160.7530 N.ar    1  UNL1       -0.1268
     30 N         142.1601  144.3046  161.9193 N.ar    1  UNL1       -0.0595
@<TRIPOS>BOND
     1    10    11    1
     2    11    12   ar
     3    12    13   ar
     4    13    14   ar
     5    14     4    1
     6     4     5    1
     7     5     6    1
     8     6     7    1
     9     1     7    1
    10     1     2    1
    11     2     3    1
    12     3    17    1
    13    17    18    1
    14    18    19    1
    15    19    20    1
    16    20    21   ar
    17    21    22   ar
    18    22    23   ar
    19    23    26    1
    20    26    27   ar
    21    27    28   ar
    22    28    29   ar
    23    29    30   ar
    24    23    24   ar
    25    24    25   ar
    26     7     8    1
    27     8     9    1
    28    14    15   ar
    29    15    16   ar
    30    16    11   ar
    31     9     4    1
    32     3     1    1
    33    25    20   ar
    34    30    26   ar
@<TRIPOS>MOLECULE
*****
 30 34 0 0 0
SMALL
GASTEIGER

@<TRIPOS>ATOM
      1 C         138.4433  138.7462  166.2193 C.3     1  UNL1        0.0002
      2 C         137.4322  138.3665  167.2601 C.3     1  UNL1        0.0001
      3 C         138.5599  139.2908  167.6120 C.3     1  UNL1        0.0037
      4 N         139.9928  138.4604  162.0041 N.pl3   1  UNL1       -0.2782
      5 C         138.8907  139.4228  162.3344 C.3     1  UNL1        0.0936
      6 C         138.3742  139.5180  163.7395 C.3     1  UNL1        0.0216
      7 C         138.9598  138.6509  164.8142 C.3     1  UNL1        0.0034
      8 C         140.0619  137.6885  164.4839 C.3     1  UNL1        0.0216
      9 C         140.5784  137.5933  163.0788 C.3     1  UNL1        0.0936
     10 CL        142.0587  138.0794  156.3839 Cl      1  UNL1       -0.0790
     11 C         141.5422  138.1746  157.7890 C.ar    1  UNL1        0.0960
     12 C         140.0757  138.3683  158.0374 C.ar    1  UNL1        0.1147
     13 N         139.5592  138.4636  159.4425 N.ar    1  UNL1       -0.2112
     14 C         140.5092  138.3651  160.5991 C.ar    1  UNL1        0.2202
     15 N         141.9757  138.1714  160.3506 N.ar    1  UNL1       -0.2112
     16 C         142.4922  138.0762  158.9455 C.ar    1  UNL1        0.1147
     17 C         139.2783  140.1389  168.6192 C.3     1  UNL1        0.0473
     18 C         140.6892  140.5778  168.3604 C.3     1  UNL1        0.2054
     19 O         141.3073  140.3583  167.0115 O.3     1  UNL1       -0.4755
     20 C         141.0668  141.3443  165.9068 C.ar    1  UNL1        0.1386
     21 C         141.6144  141.0821  164.5352 C.ar    1  UNL1        0.0384
     22 C         141.3740  142.0680  163.4306 C.ar    1  UNL1        0.0223
     23 C         140.5859  143.3160  163.6976 C.ar    1  UNL1        0.0847
     24 C         140.0382  143.5781  165.0693 C.ar    1  UNL1        0.0223
     25 C         140.2787  142.5923  166.1739 C.ar    1  UNL1        0.0384
     26 N         140.3454  144.3019  162.5930 N.ar    1  UNL1       -0.2089
     27 C         141.1461  144.4242  161.3305 C.ar    1  UNL1        0.1245
     28 C         140.5575  145.5365  160.5142 C.ar    1  UNL1        0.1445
     29 N         139.3930  146.1016  161.2722 N.ar    1  UNL1       -0.1268
     30 N         139.2619  145.3386  162.5569 N.ar    1  UNL1       -0.0595
@<TRIPOS>BOND
     1    10    11    1
     2    11    12   ar
     3    12    13   ar
     4    13    14   ar
     5    14     4    1
     6     4     5    1
     7     5     6    1
     8     6     7    1
     9     1     7    1
    10     1     2    1
    11     2     3    1
    12     3    17    1
    13    17    18    1
    14    18    19    1
    15    19    20    1
    16    20    21   ar
    17    21    22   ar
    18    22    23   ar
    19    23    26    1
    20    26    27   ar
    21    27    28   ar
    22    28    29   ar
    23    29    30   ar
    24    23    24   ar
    25    24    25   ar
    26     7     8    1
    27     8     9    1
    28    14    15   ar
    29    15    16   ar
    30    16    11   ar
    31     9     4    1
    32     3     1    1
    33    25    20   ar
    34    30    26   ar
@<TRIPOS>MOLECULE
*****
 30 34 0 0 0
SMALL
GASTEIGER

@<TRIPOS>ATOM
      1 C         142.9613  139.2542  166.1854 C.3     1  UNL1        0.0002
      2 C         143.6035  138.0143  166.7332 C.3     1  UNL1        0.0001
      3 C         143.0335  139.0394  167.6681 C.3     1  UNL1        0.0037
      4 N         141.7240  141.7739  162.6683 N.pl3   1  UNL1       -0.2782
      5 C         142.6592  142.3328  163.6992 C.3     1  UNL1        0.0936
      6 C         143.0717  141.4929  164.8716 C.3     1  UNL1        0.0216
      7 C         142.5489  140.0941  165.0130 C.3     1  UNL1        0.0034
      8 C         141.6136  139.5352  163.9820 C.3     1  UNL1        0.0216
      9 C         141.2012  140.3751  162.8097 C.3     1  UNL1        0.0936
     10 CL        140.0742  145.1335  157.9788 Cl      1  UNL1       -0.0790
     11 C         140.4866  144.2936  159.1511 C.ar    1  UNL1        0.0960
     12 C         141.6818  144.6833  159.9695 C.ar    1  UNL1        0.1147
     13 N         142.0942  143.8434  161.1418 N.ar    1  UNL1       -0.2112
     14 C         141.3115  142.6138  161.4959 C.ar    1  UNL1        0.2202
     15 N         140.1164  142.2241  160.6776 N.ar    1  UNL1       -0.2112
     16 C         139.7039  143.0640  159.5052 C.ar    1  UNL1        0.1147
     17 C         142.7461  139.5072  169.0640 C.3     1  UNL1        0.0473
     18 C         141.3378  139.8202  169.4751 C.3     1  UNL1        0.2054
     19 O         140.2049  139.5638  168.5261 O.3     1  UNL1       -0.4755
     20 C         139.8957  140.5536  167.4422 C.ar    1  UNL1        0.1386
     21 C         140.4936  141.9286  167.4894 C.ar    1  UNL1        0.0384
     22 C         140.1845  142.9184  166.4057 C.ar    1  UNL1        0.0223
     23 C         139.2775  142.5334  165.2747 C.ar    1  UNL1        0.0847
     24 C         138.6797  141.1584  165.2275 C.ar    1  UNL1        0.0223
     25 C         138.9888  140.1686  166.3113 C.ar    1  UNL1        0.0384
     26 N         138.9684  143.5232  164.1909 N.ar    1  UNL1       -0.2089
     27 C         139.7526  144.7633  163.8795 C.ar    1  UNL1        0.1245
     28 C         139.0896  145.4533  162.7243 C.ar    1  UNL1        0.1445
     29 N         137.8956  144.6395  162.3218 N.ar    1  UNL1       -0.1268
     30 N         137.8207  143.4467  163.2282 N.ar    1  UNL1       -0.0595
@<TRIPOS>BOND
     1    10    11    1
     2    11    12   ar
     3    12    13   ar
     4    13    14   ar
     5    14     4    1
     6     4     5    1
     7     5     6    1
     8     6     7    1
     9     1     7    1
    10     1     2    1
    11     2     3    1
    12     3    17    1
    13    17    18    1
    14    18    19    1
    15    19    20    1
    16    20    21   ar
    17    21    22   ar
    18    22    23   ar
    19    23    26    1
    20    26    27   ar
    21    27    28   ar
    22    28    29   ar
    23    29    30   ar
    24    23    24   ar
    25    24    25   ar
    26     7     8    1
    27     8     9    1
    28    14    15   ar
    29    15    16   ar
    30    16    11   ar
    31     9     4    1
    32     3     1    1
    33    25    20   ar
    34    30    26   ar
@<TRIPOS>MOLECULE
*****
 30 34 0 0 0
SMALL
GASTEIGER

@<TRIPOS>ATOM
      1 C         140.8841  143.0740  168.7143 C.3     1  UNL1        0.0002
      2 C         140.4574  144.0282  169.7901 C.3     1  UNL1        0.0001
      3 C         140.5460  142.5595  170.0821 C.3     1  UNL1        0.0037
      4 N         142.2090  142.3124  164.4817 N.pl3   1  UNL1       -0.2782
      5 C         143.2146  142.3082  165.5946 C.3     1  UNL1        0.0936
      6 C         142.7730  142.5621  167.0055 C.3     1  UNL1        0.0216
      7 C         141.3257  142.8201  167.3034 C.3     1  UNL1        0.0034
      8 C         140.3201  142.8243  166.1905 C.3     1  UNL1        0.0216
      9 C         140.7617  142.5705  164.7796 C.3     1  UNL1        0.0936
     10 CL        143.9755  141.2970  158.8382 Cl      1  UNL1       -0.0790
     11 C         143.5339  141.5508  160.2491 C.ar    1  UNL1        0.0960
     12 C         142.0753  141.7081  160.5616 C.ar    1  UNL1        0.1147
     13 N         141.6336  141.9620  161.9725 N.ar    1  UNL1       -0.2112
     14 C         142.6506  142.0586  163.0708 C.ar    1  UNL1        0.2202
     15 N         144.1092  141.9013  162.7583 N.ar    1  UNL1       -0.2112
     16 C         144.5508  141.6474  161.3474 C.ar    1  UNL1        0.1147
     17 C         140.4019  141.4146  171.0403 C.3     1  UNL1        0.0473
     18 C         140.0606  140.0465  170.5285 C.3     1  UNL1        0.2054
     19 O         139.1867  139.8948  169.3189 O.3     1  UNL1       -0.4755
     20 C         139.7996  139.5887  167.9844 C.ar    1  UNL1        0.1386
     21 C         138.9267  139.4485  166.7726 C.ar    1  UNL1        0.0384
     22 C         139.5395  139.1424  165.4382 C.ar    1  UNL1        0.0223
     23 C         141.0252  138.9766  165.3156 C.ar    1  UNL1        0.0847
     24 C         141.8981  139.1168  166.5274 C.ar    1  UNL1        0.0223
     25 C         141.2853  139.4229  167.8618 C.ar    1  UNL1        0.0384
     26 N         141.6381  138.6705  163.9811 N.ar    1  UNL1       -0.2089
     27 C         140.8919  138.4319  162.7020 C.ar    1  UNL1        0.1245
     28 C         141.8974  138.1632  161.6219 C.ar    1  UNL1        0.1445
     29 N         143.2651  138.2358  162.2335 N.ar    1  UNL1       -0.1268
     30 N         143.1048  138.5493  163.6915 N.ar    1  UNL1       -0.0595
@<TRIPOS>BOND
     1    10    11    1
     2    11    12   ar
     3    12    13   ar
     4    13    14   ar
     5    14     4    1
     6     4     5    1
     7     5     6    1
     8     6     7    1
     9     1     7    1
    10     1     2    1
    11     2     3    1
    12     3    17    1
    13    17    18    1
    14    18    19    1
    15    19    20    1
    16    20    21   ar
    17    21    22   ar
    18    22    23   ar
    19    23    26    1
    20    26    27   ar
    21    27    28   ar
    22    28    29   ar
    23    29    30   ar
    24    23    24   ar
    25    24    25   ar
    26     7     8    1
    27     8     9    1
    28    14    15   ar
    29    15    16   ar
    30    16    11   ar
    31     9     4    1
    32     3     1    1
    33    25    20   ar
    34    30    26   ar
@<TRIPOS>MOLECULE
*****
 30 34 0 0 0
SMALL
GASTEIGER

@<TRIPOS>ATOM
      1 C         140.3112  145.2174  162.2668 C.3     1  UNL1        0.0002
      2 C         139.6558  146.4709  161.7677 C.3     1  UNL1        0.0001
      3 C         140.4016  145.5840  160.8152 C.3     1  UNL1        0.0037
      4 N         141.2895  142.4111  165.6458 N.pl3   1  UNL1       -0.2782
      5 C         142.1924  142.4895  164.4506 C.3     1  UNL1        0.0936
      6 C         141.8663  143.4249  163.3243 C.3     1  UNL1        0.0216
      7 C         140.6373  144.2820  163.3931 C.3     1  UNL1        0.0034
      8 C         139.7343  144.2036  164.5883 C.3     1  UNL1        0.0216
      9 C         140.0605  143.2682  165.7147 C.3     1  UNL1        0.0936
     10 CL        142.5940  138.6694  170.1511 Cl      1  UNL1       -0.0790
     11 C         142.2679  139.6048  169.0248 C.ar    1  UNL1        0.0960
     12 C         141.4709  140.8478  169.2890 C.ar    1  UNL1        0.1147
     13 N         141.1448  141.7832  168.1627 N.ar    1  UNL1       -0.2112
     14 C         141.6156  141.4757  166.7721 C.ar    1  UNL1        0.2202
     15 N         142.4126  140.2327  166.5079 N.ar    1  UNL1       -0.2112
     16 C         142.7387  139.2973  167.6342 C.ar    1  UNL1        0.1147
     17 C         140.8844  145.2837  159.4271 C.3     1  UNL1        0.0473
     18 C         140.2540  144.1752  158.6372 C.3     1  UNL1        0.2054
     19 O         138.9984  143.5211  159.1328 O.3     1  UNL1       -0.4755
     20 C         139.0477  142.6071  160.3212 C.ar    1  UNL1        0.1386
     21 C         140.1964  141.6573  160.4898 C.ar    1  UNL1        0.0384
     22 C         140.2457  140.7433  161.6781 C.ar    1  UNL1        0.0223
     23 C         139.1462  140.7791  162.6978 C.ar    1  UNL1        0.0847
     24 C         137.9975  141.7288  162.5292 C.ar    1  UNL1        0.0223
     25 C         137.9482  142.6428  161.3409 C.ar    1  UNL1        0.0384
     26 N         139.1954  139.8650  163.8862 N.ar    1  UNL1       -0.2089
     27 C         138.3857  140.0058  165.1410 C.ar    1  UNL1        0.1245
     28 C         138.7529  138.8776  166.0587 C.ar    1  UNL1        0.1445
     29 N         139.7896  138.0395  165.3710 N.ar    1  UNL1       -0.1268
     30 N         140.0630  138.6498  164.0284 N.ar    1  UNL1       -0.0595
@<TRIPOS>BOND
     1    10    11    1
     2    11    12   ar
     3    12    13   ar
     4    13    14   ar
     5    14     4    1
     6     4     5    1
     7     5     6    1
     8     6     7    1
     9     1     7    1
    10     1     2    1
    11     2     3    1
    12     3    17    1
    13    17    18    1
    14    18    19    1
    15    19    20    1
    16    20    21   ar
    17    21    22   ar
    18    22    23   ar
    19    23    26    1
    20    26    27   ar
    21    27    28   ar
    22    28    29   ar
    23    29    30   ar
    24    23    24   ar
    25    24    25   ar
    26     7     8    1
    27     8     9    1
    28    14    15   ar
    29    15    16   ar
    30    16    11   ar
    31     9     4    1
    32     3     1    1
    33    25    20   ar
    34    30    26   ar
