@<TRIPOS>MOLECULE
*****
 30 32 0 0 0
SMALL
GASTEIGER

@<TRIPOS>ATOM
      1 C         137.4401  138.3916  167.2889 C.3     1  UNL1        0.0521
      2 C         138.7043  139.1925  167.1854 C.ar    1  UNL1        0.0606
      3 C         139.3549  139.3976  165.8494 C.ar    1  UNL1        0.0290
      4 C         140.6190  140.1983  165.7459 C.ar    1  UNL1        0.0475
      5 C         141.2326  140.7940  166.9783 C.ar    1  UNL1        0.0309
      6 C         142.4967  141.5948  166.8747 C.ar    1  UNL1        0.0027
      7 C         143.1102  142.1904  168.1071 C.ar    1  UNL1        0.0003
      8 C         142.4596  141.9853  169.4430 C.ar    1  UNL1        0.0060
      9 C         141.1955  141.1846  169.5466 C.ar    1  UNL1        0.0708
     10 C         140.5820  140.5889  168.3142 C.ar    1  UNL1        0.0864
     11 N         139.3178  139.7881  168.4177 N.ar    1  UNL1       -0.2494
     12 C         140.5449  140.9795  170.8825 C.2     1  UNL1        0.2442
     13 N         139.9783  139.6382  171.2427 N.am    1  UNL1       -0.3253
     14 O         140.4610  142.1156  171.8582 O.2     1  UNL1       -0.2703
     15 H         140.0334  138.8924  170.6023 H       1  UNL1        0.1453
     16 H         139.5513  139.5035  172.1195 H       1  UNL1        0.1453
     17 N         141.2696  140.4035  164.4100 N.pl3   1  UNL1       -0.3289
     18 H         141.9392  139.7593  164.0845 H       1  UNL1        0.1471
     19 C         140.8999  141.5899  163.5700 C.3     1  UNL1        0.1165
     20 C         141.8047  142.7853  163.5210 C.ar    1  UNL1        0.0288
     21 C         143.2141  142.6395  163.0286 C.ar    1  UNL1        0.1377
     22 F         143.7186  141.2984  162.5852 F       1  UNL1       -0.2045
     23 C         144.1189  143.8349  162.9796 C.ar    1  UNL1        0.0294
     24 C         143.6142  145.1761  163.4231 C.ar    1  UNL1        0.0022
     25 C         142.2049  145.3219  163.9155 C.ar    1  UNL1        0.0037
     26 C         141.3001  144.1265  163.9644 C.ar    1  UNL1        0.0712
     27 C         139.8907  144.2723  164.4569 C.3     1  UNL1        0.4184
     28 F         138.4814  144.4181  164.9493 F       1  UNL1       -0.1659
     29 F         139.4662  144.7510  163.1002 F       1  UNL1       -0.1659
     30 F         140.3153  143.7936  165.8135 F       1  UNL1       -0.1659
@<TRIPOS>BOND
     1     1     2    1
     2     2     3   ar
     3     3     4   ar
     4     4    17    1
     5    17    19    1
     6    19    20    1
     7    20    21   ar
     8    21    22    1
     9    21    23   ar
    10    23    24   ar
    11    24    25   ar
    12    25    26   ar
    13    26    27    1
    14    27    28    1
    15    27    29    1
    16    27    30    1
    17     4     5   ar
    18     5     6   ar
    19     6     7   ar
    20     7     8   ar
    21     8     9   ar
    22     9    12    1
    23    12    13   am
    24    12    14    2
    25     9    10   ar
    26    10    11   ar
    27    11     2   ar
    28    26    20   ar
    29    10     5   ar
    30    17    18    1
    31    13    15    1
    32    13    16    1
@<TRIPOS>MOLECULE
*****
 30 32 0 0 0
SMALL
GASTEIGER

@<TRIPOS>ATOM
      1 C         137.5555  138.4354  167.2397 C.3     1  UNL1        0.0521
      2 C         138.8239  139.2342  167.1837 C.ar    1  UNL1        0.0606
      3 C         139.5137  139.4552  165.8701 C.ar    1  UNL1        0.0290
      4 C         140.7821  140.2540  165.8141 C.ar    1  UNL1        0.0475
      5 C         141.3607  140.8319  167.0716 C.ar    1  UNL1        0.0309
      6 C         142.6290  141.6307  167.0156 C.ar    1  UNL1        0.0027
      7 C         143.2076  142.2085  168.2731 C.ar    1  UNL1        0.0003
      8 C         142.5178  141.9875  169.5866 C.ar    1  UNL1        0.0060
      9 C         141.2495  141.1887  169.6426 C.ar    1  UNL1        0.0708
     10 C         140.6709  140.6109  168.3852 C.ar    1  UNL1        0.0864
     11 N         139.4025  139.8121  168.4412 N.ar    1  UNL1       -0.2494
     12 C         140.5597  140.9678  170.9562 C.2     1  UNL1        0.2442
     13 N         139.9731  139.6255  171.2788 N.am    1  UNL1       -0.3253
     14 O         140.4566  142.0890  171.9471 O.2     1  UNL1       -0.2703
     15 H         140.0407  138.8895  170.6284 H       1  UNL1        0.1453
     16 H         139.5203  139.4805  172.1409 H       1  UNL1        0.1453
     17 N         141.4718  140.4750  164.5005 N.pl3   1  UNL1       -0.3289
     18 H         142.3287  140.0279  164.3132 H       1  UNL1        0.1471
     19 C         140.8561  141.3771  163.4725 C.3     1  UNL1        0.1165
     20 C         139.8522  142.4116  163.8873 C.ar    1  UNL1        0.0288
     21 C         140.2966  143.6244  164.6500 C.ar    1  UNL1        0.1377
     22 F         141.7447  143.8027  164.9980 F       1  UNL1       -0.2045
     23 C         139.2927  144.6590  165.0648 C.ar    1  UNL1        0.0294
     24 C         137.8445  144.4807  164.7168 C.ar    1  UNL1        0.0022
     25 C         137.4002  143.2679  163.9541 C.ar    1  UNL1        0.0037
     26 C         138.4041  142.2334  163.5393 C.ar    1  UNL1        0.0712
     27 C         137.9598  141.0206  162.7765 C.3     1  UNL1        0.4184
     28 F         137.5154  139.8078  162.0138 F       1  UNL1       -0.1659
     29 F         138.4059  141.6623  161.4962 F       1  UNL1       -0.1659
     30 F         137.5136  140.3789  164.0568 F       1  UNL1       -0.1659
@<TRIPOS>BOND
     1     1     2    1
     2     2     3   ar
     3     3     4   ar
     4     4    17    1
     5    17    19    1
     6    19    20    1
     7    20    21   ar
     8    21    22    1
     9    21    23   ar
    10    23    24   ar
    11    24    25   ar
    12    25    26   ar
    13    26    27    1
    14    27    28    1
    15    27    29    1
    16    27    30    1
    17     4     5   ar
    18     5     6   ar
    19     6     7   ar
    20     7     8   ar
    21     8     9   ar
    22     9    12    1
    23    12    13   am
    24    12    14    2
    25     9    10   ar
    26    10    11   ar
    27    11     2   ar
    28    26    20   ar
    29    10     5   ar
    30    17    18    1
    31    13    15    1
    32    13    16    1
@<TRIPOS>MOLECULE
*****
 30 32 0 0 0
SMALL
GASTEIGER

@<TRIPOS>ATOM
      1 C         144.5276  143.7462  165.1023 C.3     1  UNL1        0.0521
      2 C         143.0615  143.4350  165.0395 C.ar    1  UNL1        0.0606
      3 C         142.4657  142.4359  165.9865 C.ar    1  UNL1        0.0290
      4 C         140.9997  142.1247  165.9237 C.ar    1  UNL1        0.0475
      5 C         140.1295  142.8125  164.9138 C.ar    1  UNL1        0.0309
      6 C         138.6635  142.5013  164.8511 C.ar    1  UNL1        0.0027
      7 C         137.7934  143.1891  163.8412 C.ar    1  UNL1        0.0003
      8 C         138.3893  144.1881  162.8942 C.ar    1  UNL1        0.0060
      9 C         139.8552  144.4994  162.9570 C.ar    1  UNL1        0.0708
     10 C         140.7253  143.8116  163.9668 C.ar    1  UNL1        0.0864
     11 N         142.1914  144.1228  164.0296 N.ar    1  UNL1       -0.2494
     12 C         140.4511  145.4984  162.0100 C.2     1  UNL1        0.2442
     13 N         141.7478  145.1962  161.3191 N.am    1  UNL1       -0.3253
     14 O         139.7503  146.7996  161.7538 O.2     1  UNL1       -0.2703
     15 H         142.2077  144.3422  161.4872 H       1  UNL1        0.1453
     16 H         142.1388  145.8519  160.6976 H       1  UNL1        0.1453
     17 N         140.4038  141.1257  166.8707 N.pl3   1  UNL1       -0.3289
     18 H         139.7901  141.4249  167.5800 H       1  UNL1        0.1471
     19 C         140.7429  139.6707  166.7371 C.3     1  UNL1        0.1165
     20 C         140.4728  138.9528  165.4480 C.ar    1  UNL1        0.0288
     21 C         139.0603  138.6760  165.0256 C.ar    1  UNL1        0.1377
     22 F         137.9182  139.1169  165.8921 F       1  UNL1       -0.2045
     23 C         138.7901  137.9582  163.7365 C.ar    1  UNL1        0.0294
     24 C         139.9324  137.5172  162.8699 C.ar    1  UNL1        0.0022
     25 C         141.3447  137.7941  163.2924 C.ar    1  UNL1        0.0037
     26 C         141.6149  138.5119  164.5815 C.ar    1  UNL1        0.0712
     27 C         143.0274  138.7888  165.0040 C.3     1  UNL1        0.4184
     28 F         144.4397  139.0657  165.4264 F       1  UNL1       -0.1659
     29 F         142.9882  137.5982  165.9155 F       1  UNL1       -0.1659
     30 F         143.0666  139.9794  164.0924 F       1  UNL1       -0.1659
@<TRIPOS>BOND
     1     1     2    1
     2     2     3   ar
     3     3     4   ar
     4     4    17    1
     5    17    19    1
     6    19    20    1
     7    20    21   ar
     8    21    22    1
     9    21    23   ar
    10    23    24   ar
    11    24    25   ar
    12    25    26   ar
    13    26    27    1
    14    27    28    1
    15    27    29    1
    16    27    30    1
    17     4     5   ar
    18     5     6   ar
    19     6     7   ar
    20     7     8   ar
    21     8     9   ar
    22     9    12    1
    23    12    13   am
    24    12    14    2
    25     9    10   ar
    26    10    11   ar
    27    11     2   ar
    28    26    20   ar
    29    10     5   ar
    30    17    18    1
    31    13    15    1
    32    13    16    1
@<TRIPOS>MOLECULE
*****
 30 32 0 0 0
SMALL
GASTEIGER

@<TRIPOS>ATOM
      1 C         139.9315  143.9137  165.0650 C.3     1  UNL1        0.0521
      2 C         140.4806  142.8303  165.9454 C.ar    1  UNL1        0.0606
      3 C         141.1643  141.6427  165.3354 C.ar    1  UNL1        0.0290
      4 C         141.7133  140.5594  166.2157 C.ar    1  UNL1        0.0475
      5 C         141.5787  140.6637  167.7061 C.ar    1  UNL1        0.0309
      6 C         142.1278  139.5804  168.5864 C.ar    1  UNL1        0.0027
      7 C         141.9932  139.6848  170.0766 C.ar    1  UNL1        0.0003
      8 C         141.3095  140.8724  170.6866 C.ar    1  UNL1        0.0060
      9 C         140.7604  141.9557  169.8063 C.ar    1  UNL1        0.0708
     10 C         140.8951  141.8514  168.3161 C.ar    1  UNL1        0.0864
     11 N         140.3460  142.9347  167.4357 N.ar    1  UNL1       -0.2494
     12 C         140.0768  143.1434  170.4163 C.2     1  UNL1        0.2442
     13 N         140.6491  144.5170  170.2277 N.am    1  UNL1       -0.3253
     14 O         138.8207  142.9575  171.2149 O.2     1  UNL1       -0.2703
     15 H         141.4735  144.6390  169.7036 H       1  UNL1        0.1453
     16 H         140.2004  145.2965  170.6280 H       1  UNL1        0.1453
     17 N         142.3970  139.3717  165.6057 N.pl3   1  UNL1       -0.3289
     18 H         143.3682  139.3913  165.4458 H       1  UNL1        0.1471
     19 C         141.6009  138.1543  165.2395 C.3     1  UNL1        0.1165
     20 C         140.7809  138.1443  163.9835 C.ar    1  UNL1        0.0288
     21 C         141.4550  138.0269  162.6486 C.ar    1  UNL1        0.1377
     22 F         142.9490  137.9194  162.5697 F       1  UNL1       -0.2045
     23 C         140.6349  138.0168  161.3927 C.ar    1  UNL1        0.0294
     24 C         139.1408  138.1242  161.4716 C.ar    1  UNL1        0.0022
     25 C         138.4668  138.2417  162.8065 C.ar    1  UNL1        0.0037
     26 C         139.2869  138.2517  164.0624 C.ar    1  UNL1        0.0712
     27 C         138.6128  138.3692  165.3974 C.3     1  UNL1        0.4184
     28 F         137.9388  138.4866  166.7322 F       1  UNL1       -0.1659
     29 F         138.5687  139.8606  165.2439 F       1  UNL1       -0.1659
     30 F         138.6569  136.8777  165.5508 F       1  UNL1       -0.1659
@<TRIPOS>BOND
     1     1     2    1
     2     2     3   ar
     3     3     4   ar
     4     4    17    1
     5    17    19    1
     6    19    20    1
     7    20    21   ar
     8    21    22    1
     9    21    23   ar
    10    23    24   ar
    11    24    25   ar
    12    25    26   ar
    13    26    27    1
    14    27    28    1
    15    27    29    1
    16    27    30    1
    17     4     5   ar
    18     5     6   ar
    19     6     7   ar
    20     7     8   ar
    21     8     9   ar
    22     9    12    1
    23    12    13   am
    24    12    14    2
    25     9    10   ar
    26    10    11   ar
    27    11     2   ar
    28    26    20   ar
    29    10     5   ar
    30    17    18    1
    31    13    15    1
    32    13    16    1
@<TRIPOS>MOLECULE
*****
 30 32 0 0 0
SMALL
GASTEIGER

@<TRIPOS>ATOM
      1 C         137.3404  138.3613  167.3322 C.3     1  UNL1        0.0521
      2 C         138.6309  139.1201  167.2379 C.ar    1  UNL1        0.0606
      3 C         139.3027  139.2949  165.9081 C.ar    1  UNL1        0.0290
      4 C         140.5931  140.0537  165.8138 C.ar    1  UNL1        0.0475
      5 C         141.2119  140.6377  167.0492 C.ar    1  UNL1        0.0309
      6 C         142.5024  141.3964  166.9548 C.ar    1  UNL1        0.0027
      7 C         143.1211  141.9803  168.1902 C.ar    1  UNL1        0.0003
      8 C         142.4494  141.8055  169.5199 C.ar    1  UNL1        0.0060
      9 C         141.1589  141.0468  169.6143 C.ar    1  UNL1        0.0708
     10 C         140.5402  140.4628  168.3789 C.ar    1  UNL1        0.0864
     11 N         139.2496  139.7040  168.4732 N.ar    1  UNL1       -0.2494
     12 C         140.4871  140.8719  170.9440 C.2     1  UNL1        0.2442
     13 N         139.9523  139.5286  171.3432 N.am    1  UNL1       -0.3253
     14 O         140.3502  142.0404  171.8745 O.2     1  UNL1       -0.2703
     15 H         140.0421  138.7617  170.7325 H       1  UNL1        0.1453
     16 H         139.5114  139.4139  172.2160 H       1  UNL1        0.1453
     17 N         141.2649  140.2285  164.4840 N.pl3   1  UNL1       -0.3289
     18 H         142.1403  139.8106  164.3160 H       1  UNL1        0.1471
     19 C         140.6029  141.0401  163.4102 C.3     1  UNL1        0.1165
     20 C         140.0607  142.4024  163.7265 C.ar    1  UNL1        0.0288
     21 C         138.6223  142.5644  164.1200 C.ar    1  UNL1        0.1377
     22 F         137.7261  141.3641  164.1972 F       1  UNL1       -0.2045
     23 C         138.0801  143.9268  164.4362 C.ar    1  UNL1        0.0294
     24 C         138.9763  145.1271  164.3590 C.ar    1  UNL1        0.0022
     25 C         140.4147  144.9651  163.9655 C.ar    1  UNL1        0.0037
     26 C         140.9569  143.6028  163.6493 C.ar    1  UNL1        0.0712
     27 C         142.3953  143.4408  163.2558 C.3     1  UNL1        0.4184
     28 F         143.8337  143.2788  162.8624 F       1  UNL1       -0.1659
     29 F         142.0096  143.5297  161.8090 F       1  UNL1       -0.1659
     30 F         142.7810  143.3519  164.7026 F       1  UNL1       -0.1659
@<TRIPOS>BOND
     1     1     2    1
     2     2     3   ar
     3     3     4   ar
     4     4    17    1
     5    17    19    1
     6    19    20    1
     7    20    21   ar
     8    21    22    1
     9    21    23   ar
    10    23    24   ar
    11    24    25   ar
    12    25    26   ar
    13    26    27    1
    14    27    28    1
    15    27    29    1
    16    27    30    1
    17     4     5   ar
    18     5     6   ar
    19     6     7   ar
    20     7     8   ar
    21     8     9   ar
    22     9    12    1
    23    12    13   am
    24    12    14    2
    25     9    10   ar
    26    10    11   ar
    27    11     2   ar
    28    26    20   ar
    29    10     5   ar
    30    17    18    1
    31    13    15    1
    32    13    16    1
@<TRIPOS>MOLECULE
*****
 30 32 0 0 0
SMALL
GASTEIGER

@<TRIPOS>ATOM
      1 C         138.0572  144.1198  164.6670 C.3     1  UNL1        0.0521
      2 C         139.4908  143.7016  164.8087 C.ar    1  UNL1        0.0606
      3 C         139.9630  143.0614  166.0804 C.ar    1  UNL1        0.0290
      4 C         141.3965  142.6431  166.2222 C.ar    1  UNL1        0.0475
      5 C         142.3579  142.8651  165.0923 C.ar    1  UNL1        0.0309
      6 C         143.7913  142.4468  165.2341 C.ar    1  UNL1        0.0027
      7 C         144.7526  142.6688  164.1042 C.ar    1  UNL1        0.0003
      8 C         144.2804  143.3089  162.8326 C.ar    1  UNL1        0.0060
      9 C         142.8469  143.7272  162.6907 C.ar    1  UNL1        0.0708
     10 C         141.8856  143.5053  163.8206 C.ar    1  UNL1        0.0864
     11 N         140.4521  143.9235  163.6789 N.ar    1  UNL1       -0.2494
     12 C         142.3747  144.3674  161.4191 C.2     1  UNL1        0.2442
     13 N         141.4215  145.5244  161.4708 N.am    1  UNL1       -0.3253
     14 O         142.8557  143.8506  160.0956 O.2     1  UNL1       -0.2703
     15 H         141.1058  145.8636  162.3394 H       1  UNL1        0.1453
     16 H         141.1115  145.9445  160.6362 H       1  UNL1        0.1453
     17 N         141.8687  142.0030  167.4939 N.pl3   1  UNL1       -0.3289
     18 H         142.2210  142.5609  168.2246 H       1  UNL1        0.1471
     19 C         141.8042  140.5128  167.6524 C.3     1  UNL1        0.1165
     20 C         140.7197  139.7323  166.9707 C.ar    1  UNL1        0.0288
     21 C         139.3362  139.7075  167.5499 C.ar    1  UNL1        0.1377
     22 F         139.0373  140.4630  168.8107 F       1  UNL1       -0.2045
     23 C         138.2517  138.9270  166.8682 C.ar    1  UNL1        0.0294
     24 C         138.5506  138.1714  165.6073 C.ar    1  UNL1        0.0022
     25 C         139.9341  138.1963  165.0282 C.ar    1  UNL1        0.0037
     26 C         141.0186  138.9768  165.7098 C.ar    1  UNL1        0.0712
     27 C         142.4021  139.0016  165.1306 C.3     1  UNL1        0.4184
     28 F         143.7855  139.0265  164.5515 F       1  UNL1       -0.1659
     29 F         141.9512  139.9897  164.0960 F       1  UNL1       -0.1659
     30 F         142.8529  138.0136  166.1652 F       1  UNL1       -0.1659
@<TRIPOS>BOND
     1     1     2    1
     2     2     3   ar
     3     3     4   ar
     4     4    17    1
     5    17    19    1
     6    19    20    1
     7    20    21   ar
     8    21    22    1
     9    21    23   ar
    10    23    24   ar
    11    24    25   ar
    12    25    26   ar
    13    26    27    1
    14    27    28    1
    15    27    29    1
    16    27    30    1
    17     4     5   ar
    18     5     6   ar
    19     6     7   ar
    20     7     8   ar
    21     8     9   ar
    22     9    12    1
    23    12    13   am
    24    12    14    2
    25     9    10   ar
    26    10    11   ar
    27    11     2   ar
    28    26    20   ar
    29    10     5   ar
    30    17    18    1
    31    13    15    1
    32    13    16    1
@<TRIPOS>MOLECULE
*****
 30 32 0 0 0
SMALL
GASTEIGER

@<TRIPOS>ATOM
      1 C         144.5127  143.4892  162.4819 C.3     1  UNL1        0.0521
      2 C         143.2374  143.4281  163.2693 C.ar    1  UNL1        0.0606
      3 C         143.2342  142.8346  164.6469 C.ar    1  UNL1        0.0290
      4 C         141.9591  142.7735  165.4343 C.ar    1  UNL1        0.0475
      5 C         140.6869  143.3061  164.8442 C.ar    1  UNL1        0.0309
      6 C         139.4117  143.2450  165.6316 C.ar    1  UNL1        0.0027
      7 C         138.1397  143.7775  165.0415 C.ar    1  UNL1        0.0003
      8 C         138.1428  144.3711  163.6640 C.ar    1  UNL1        0.0060
      9 C         139.4180  144.4322  162.8765 C.ar    1  UNL1        0.0708
     10 C         140.6901  143.8996  163.4667 C.ar    1  UNL1        0.0864
     11 N         141.9654  143.9607  162.6792 N.ar    1  UNL1       -0.2494
     12 C         139.4212  145.0257  161.4990 C.2     1  UNL1        0.2442
     13 N         139.6175  144.1429  160.3023 N.am    1  UNL1       -0.3253
     14 O         139.2281  146.5022  161.3181 O.2     1  UNL1       -0.2703
     15 H         139.7442  143.1738  160.4211 H       1  UNL1        0.1453
     16 H         139.6195  144.5325  159.3982 H       1  UNL1        0.1453
     17 N         141.9559  142.1799  166.8119 N.pl3   1  UNL1       -0.3289
     18 H         141.9202  142.7676  167.6010 H       1  UNL1        0.1471
     19 C         142.0071  140.6911  166.9872 C.3     1  UNL1        0.1165
     20 C         140.8552  139.8428  166.5361 C.ar    1  UNL1        0.0288
     21 C         139.5409  139.9190  167.2550 C.ar    1  UNL1        0.1377
     22 F         139.3784  140.8436  168.4249 F       1  UNL1       -0.2045
     23 C         138.3890  139.0707  166.8039 C.ar    1  UNL1        0.0294
     24 C         138.5515  138.1461  165.6339 C.ar    1  UNL1        0.0022
     25 C         139.8658  138.0698  164.9151 C.ar    1  UNL1        0.0037
     26 C         141.0177  138.9182  165.3662 C.ar    1  UNL1        0.0712
     27 C         142.3320  138.8419  164.6473 C.3     1  UNL1        0.4184
     28 F         143.6463  138.7656  163.9285 F       1  UNL1       -0.1659
     29 F         141.8851  139.9285  163.7147 F       1  UNL1       -0.1659
     30 F         142.7790  137.7554  165.5798 F       1  UNL1       -0.1659
@<TRIPOS>BOND
     1     1     2    1
     2     2     3   ar
     3     3     4   ar
     4     4    17    1
     5    17    19    1
     6    19    20    1
     7    20    21   ar
     8    21    22    1
     9    21    23   ar
    10    23    24   ar
    11    24    25   ar
    12    25    26   ar
    13    26    27    1
    14    27    28    1
    15    27    29    1
    16    27    30    1
    17     4     5   ar
    18     5     6   ar
    19     6     7   ar
    20     7     8   ar
    21     8     9   ar
    22     9    12    1
    23    12    13   am
    24    12    14    2
    25     9    10   ar
    26    10    11   ar
    27    11     2   ar
    28    26    20   ar
    29    10     5   ar
    30    17    18    1
    31    13    15    1
    32    13    16    1
@<TRIPOS>MOLECULE
*****
 30 32 0 0 0
SMALL
GASTEIGER

@<TRIPOS>ATOM
      1 C         143.6249  142.4492  169.3345 C.3     1  UNL1        0.0521
      2 C         142.7281  141.6503  168.4357 C.ar    1  UNL1        0.0606
      3 C         143.1879  141.2759  167.0579 C.ar    1  UNL1        0.0290
      4 C         142.2912  140.4770  166.1592 C.ar    1  UNL1        0.0475
      5 C         140.9346  140.0526  166.6383 C.ar    1  UNL1        0.0309
      6 C         140.0378  139.2537  165.7396 C.ar    1  UNL1        0.0027
      7 C         138.6813  138.8293  166.2187 C.ar    1  UNL1        0.0003
      8 C         138.2215  139.2037  167.5965 C.ar    1  UNL1        0.0060
      9 C         139.1182  140.0025  168.4952 C.ar    1  UNL1        0.0708
     10 C         140.4747  140.4270  168.0161 C.ar    1  UNL1        0.0864
     11 N         141.3715  141.2258  168.9148 N.ar    1  UNL1       -0.2494
     12 C         138.6583  140.3769  169.8730 C.2     1  UNL1        0.2442
     13 N         139.0964  141.6754  170.4829 N.am    1  UNL1       -0.3253
     14 O         137.7605  139.4528  170.6410 O.2     1  UNL1       -0.2703
     15 H         139.6857  142.2820  169.9789 H       1  UNL1        0.1453
     16 H         138.7946  141.9211  171.3872 H       1  UNL1        0.1453
     17 N         142.7510  140.1027  164.7814 N.pl3   1  UNL1       -0.3289
     18 H         143.3312  139.3178  164.6524 H       1  UNL1        0.1471
     19 C         142.3270  140.9241  163.6001 C.3     1  UNL1        0.1165
     20 C         142.2706  142.4192  163.7076 C.ar    1  UNL1        0.0288
     21 C         140.9629  143.1030  163.9770 C.ar    1  UNL1        0.1377
     22 F         139.7117  142.2917  164.1388 F       1  UNL1       -0.2045
     23 C         140.9066  144.5980  164.0845 C.ar    1  UNL1        0.0294
     24 C         142.1579  145.4093  163.9227 C.ar    1  UNL1        0.0022
     25 C         143.4655  144.7255  163.6533 C.ar    1  UNL1        0.0037
     26 C         143.5218  143.2304  163.5458 C.ar    1  UNL1        0.0712
     27 C         144.8295  142.5466  163.2765 C.3     1  UNL1        0.4184
     28 F         146.1371  141.8628  163.0071 F       1  UNL1       -0.1659
     29 F         145.1107  142.5042  164.7492 F       1  UNL1       -0.1659
     30 F         144.5483  142.5890  161.8037 F       1  UNL1       -0.1659
@<TRIPOS>BOND
     1     1     2    1
     2     2     3   ar
     3     3     4   ar
     4     4    17    1
     5    17    19    1
     6    19    20    1
     7    20    21   ar
     8    21    22    1
     9    21    23   ar
    10    23    24   ar
    11    24    25   ar
    12    25    26   ar
    13    26    27    1
    14    27    28    1
    15    27    29    1
    16    27    30    1
    17     4     5   ar
    18     5     6   ar
    19     6     7   ar
    20     7     8   ar
    21     8     9   ar
    22     9    12    1
    23    12    13   am
    24    12    14    2
    25     9    10   ar
    26    10    11   ar
    27    11     2   ar
    28    26    20   ar
    29    10     5   ar
    30    17    18    1
    31    13    15    1
    32    13    16    1
@<TRIPOS>MOLECULE
*****
 30 32 0 0 0
SMALL
GASTEIGER

@<TRIPOS>ATOM
      1 C         143.4908  142.3078  168.9939 C.3     1  UNL1        0.0521
      2 C         142.5043  141.5284  168.1757 C.ar    1  UNL1        0.0606
      3 C         142.8213  141.1783  166.7520 C.ar    1  UNL1        0.0290
      4 C         141.8348  140.3990  165.9338 C.ar    1  UNL1        0.0475
      5 C         140.5313  139.9697  166.5392 C.ar    1  UNL1        0.0309
      6 C         139.5449  139.1904  165.7210 C.ar    1  UNL1        0.0027
      7 C         138.2414  138.7611  166.3265 C.ar    1  UNL1        0.0003
      8 C         137.9244  139.1112  167.7502 C.ar    1  UNL1        0.0060
      9 C         138.9108  139.8905  168.5684 C.ar    1  UNL1        0.0708
     10 C         140.2143  140.3198  167.9629 C.ar    1  UNL1        0.0864
     11 N         141.2008  141.0992  168.7812 N.ar    1  UNL1       -0.2494
     12 C         138.5938  140.2406  169.9921 C.2     1  UNL1        0.2442
     13 N         138.9810  141.5828  170.5385 N.am    1  UNL1       -0.3253
     14 O         137.8895  139.2486  170.8694 O.2     1  UNL1       -0.2703
     15 H         139.4433  142.2339  169.9627 H       1  UNL1        0.1453
     16 H         138.7730  141.8125  171.4730 H       1  UNL1        0.1453
     17 N         142.1519  140.0489  164.5101 N.pl3   1  UNL1       -0.3289
     18 H         142.6705  139.2373  164.3065 H       1  UNL1        0.1471
     19 C         141.6787  140.9355  163.3965 C.3     1  UNL1        0.1165
     20 C         141.8497  142.4223  163.4972 C.ar    1  UNL1        0.0288
     21 C         143.1793  143.0466  163.1929 C.ar    1  UNL1        0.1377
     22 F         144.3377  142.1841  162.7878 F       1  UNL1       -0.2045
     23 C         143.3504  144.5334  163.2936 C.ar    1  UNL1        0.0294
     24 C         142.1919  145.3959  163.6987 C.ar    1  UNL1        0.0022
     25 C         140.8624  144.7716  164.0030 C.ar    1  UNL1        0.0037
     26 C         140.6913  143.2848  163.9023 C.ar    1  UNL1        0.0712
     27 C         139.3618  142.6605  164.2067 C.3     1  UNL1        0.4184
     28 F         138.0323  142.0362  164.5111 F       1  UNL1       -0.1659
     29 F         139.1227  142.4546  162.7403 F       1  UNL1       -0.1659
     30 F         139.6008  142.8664  165.6731 F       1  UNL1       -0.1659
@<TRIPOS>BOND
     1     1     2    1
     2     2     3   ar
     3     3     4   ar
     4     4    17    1
     5    17    19    1
     6    19    20    1
     7    20    21   ar
     8    21    22    1
     9    21    23   ar
    10    23    24   ar
    11    24    25   ar
    12    25    26   ar
    13    26    27    1
    14    27    28    1
    15    27    29    1
    16    27    30    1
    17     4     5   ar
    18     5     6   ar
    19     6     7   ar
    20     7     8   ar
    21     8     9   ar
    22     9    12    1
    23    12    13   am
    24    12    14    2
    25     9    10   ar
    26    10    11   ar
    27    11     2   ar
    28    26    20   ar
    29    10     5   ar
    30    17    18    1
    31    13    15    1
    32    13    16    1
