@<TRIPOS>MOLECULE
*****
 34 37 0 0 0
SMALL
GASTEIGER

@<TRIPOS>ATOM
      1 N         140.7470  141.4193  167.7902 N.ar    1  UNL1       -0.2417
      2 N         140.6127  141.7267  166.3282 N.ar    1  UNL1       -0.1682
      3 C         139.6586  140.7349  165.7317 C.ar    1  UNL1        0.1079
      4 C         139.2032  139.8144  166.8250 C.ar    1  UNL1        0.1031
      5 C         139.8758  140.2374  168.0972 C.ar    1  UNL1        0.1279
      6 N         139.7070  139.5919  169.4407 N.pl3   1  UNL1       -0.3427
      7 H         139.1093  138.8162  169.5425 H       1  UNL1        0.1437
      8 H         140.1939  139.9438  170.2206 H       1  UNL1        0.1437
      9 C         139.2343  140.6741  164.2941 C.ar    1  UNL1        0.0197
     10 C         137.9312  141.2842  163.8703 C.ar    1  UNL1        0.0031
     11 C         137.5071  141.2234  162.4329 C.ar    1  UNL1        0.0193
     12 C         138.3860  140.5526  161.4192 C.ar    1  UNL1        0.0844
     13 N         137.9618  140.4919  159.9817 N.ar    1  UNL1       -0.2117
     14 C         138.8407  139.8211  158.9680 C.ar    1  UNL1        0.2247
     15 C         140.1439  139.2110  159.3919 C.ar    1  UNL1        0.0577
     16 C         140.5681  139.2718  160.8294 C.ar    1  UNL1        0.0063
     17 C         139.6891  139.9426  161.8430 C.ar    1  UNL1        0.0180
     18 C         140.1133  140.0033  163.2805 C.ar    1  UNL1        0.0031
     19 O         138.4166  139.7604  157.5306 O.3     1  UNL1       -0.4640
     20 C         137.4625  140.7820  156.9863 C.3     1  UNL1        0.1678
     21 C         136.1171  141.1333  156.4237 C.3     1  UNL1        0.0473
     22 C         137.1556  142.2001  156.6061 C.3     1  UNL1        0.0473
     23 C         138.2436  138.6716  166.6728 C.2     1  UNL1        0.2470
     24 N         138.4021  137.7052  165.5367 N.am    1  UNL1       -0.3252
     25 O         137.1253  138.4953  167.6570 O.2     1  UNL1       -0.2702
     26 H         139.1361  137.8210  164.8908 H       1  UNL1        0.1453
     27 H         137.7723  136.9552  165.4369 H       1  UNL1        0.1453
     28 C         142.7608  141.2702  168.4402 C.3     1  UNL1        0.0246
     29 C         141.6023  142.1632  168.7726 C.3     1  UNL1        0.0903
     30 C         140.4438  143.0561  169.1051 C.3     1  UNL1        0.0246
     31 C         142.4575  142.9070  169.7551 C.3     1  UNL1        0.0543
     32 C         143.9046  142.5455  169.9140 C.3     1  UNL1        0.1391
     33 O         144.8435  143.4934  170.5996 O.3     1  UNL1       -0.3819
     34 H         144.9349  144.2993  170.0676 H       1  UNL1        0.2104
@<TRIPOS>BOND
     1    28    29    1
     2    29    30    1
     3    29    31    1
     4    31    32    1
     5    32    33    1
     6    29     1    1
     7     1     2   ar
     8     2     3   ar
     9     3     9    1
    10     9    10   ar
    11    10    11   ar
    12    11    12   ar
    13    12    13   ar
    14    13    14   ar
    15    14    19    1
    16    19    20    1
    17    20    21    1
    18    21    22    1
    19    14    15   ar
    20    15    16   ar
    21    16    17   ar
    22    17    18   ar
    23     3     4   ar
    24     4    23    1
    25    23    24   am
    26    23    25    2
    27     4     5   ar
    28     5     6    1
    29     5     1   ar
    30    18     9   ar
    31    17    12   ar
    32    22    20    1
    33    33    34    1
    34    24    26    1
    35    24    27    1
    36     6     7    1
    37     6     8    1
@<TRIPOS>MOLECULE
*****
 34 37 0 0 0
SMALL
GASTEIGER

@<TRIPOS>ATOM
      1 N         140.0911  140.8266  167.8549 N.ar    1  UNL1       -0.2417
      2 N         140.6057  141.9474  167.0012 N.ar    1  UNL1       -0.1682
      3 C         139.9585  141.8377  165.6524 C.ar    1  UNL1        0.1079
      4 C         139.0439  140.6490  165.6725 C.ar    1  UNL1        0.1031
      5 C         139.1258  140.0241  167.0337 C.ar    1  UNL1        0.1279
      6 N         138.3743  138.8099  167.4930 N.pl3   1  UNL1       -0.3427
      7 H         137.7599  138.3490  166.8771 H       1  UNL1        0.1437
      8 H         138.4956  138.4738  168.4104 H       1  UNL1        0.1437
      9 C         140.1861  142.7556  164.4880 C.ar    1  UNL1        0.0197
     10 C         139.7640  144.1925  164.5720 C.ar    1  UNL1        0.0031
     11 C         139.9915  145.1103  163.4076 C.ar    1  UNL1        0.0193
     12 C         140.6412  144.5912  162.1592 C.ar    1  UNL1        0.0844
     13 N         140.8688  145.5090  160.9948 N.ar    1  UNL1       -0.2117
     14 C         141.5184  144.9899  159.7464 C.ar    1  UNL1        0.2247
     15 C         141.9405  143.5529  159.6625 C.ar    1  UNL1        0.0577
     16 C         141.7130  142.6352  160.8269 C.ar    1  UNL1        0.0063
     17 C         141.0633  143.1543  162.0752 C.ar    1  UNL1        0.0180
     18 C         140.8358  142.2365  163.2396 C.ar    1  UNL1        0.0031
     19 O         141.7460  145.9077  158.5820 O.3     1  UNL1       -0.4640
     20 C         140.7876  145.9071  157.4280 C.3     1  UNL1        0.1678
     21 C         139.7416  146.6020  156.6077 C.3     1  UNL1        0.0473
     22 C         140.1738  145.2110  156.2497 C.3     1  UNL1        0.0473
     23 C         138.1962  140.1694  164.5318 C.2     1  UNL1        0.2470
     24 N         137.2336  141.1077  163.8663 N.am    1  UNL1       -0.3252
     25 O         138.3111  138.7513  164.0565 O.2     1  UNL1       -0.2702
     26 H         137.1581  142.0385  164.1782 H       1  UNL1        0.1453
     27 H         136.6772  140.7929  163.1176 H       1  UNL1        0.1453
     28 C         141.7124  139.8495  168.8122 C.3     1  UNL1        0.0246
     29 C         140.4744  140.5557  169.2795 C.3     1  UNL1        0.0903
     30 C         139.2363  141.2620  169.7469 C.3     1  UNL1        0.0246
     31 C         140.8577  140.2849  170.7042 C.3     1  UNL1        0.0543
     32 C         142.1235  140.8637  171.2633 C.3     1  UNL1        0.1391
     33 O         142.0988  142.1963  171.9515 O.3     1  UNL1       -0.3819
     34 H         141.8739  142.8877  171.3094 H       1  UNL1        0.2104
@<TRIPOS>BOND
     1    28    29    1
     2    29    30    1
     3    29    31    1
     4    31    32    1
     5    32    33    1
     6    29     1    1
     7     1     2   ar
     8     2     3   ar
     9     3     9    1
    10     9    10   ar
    11    10    11   ar
    12    11    12   ar
    13    12    13   ar
    14    13    14   ar
    15    14    19    1
    16    19    20    1
    17    20    21    1
    18    21    22    1
    19    14    15   ar
    20    15    16   ar
    21    16    17   ar
    22    17    18   ar
    23     3     4   ar
    24     4    23    1
    25    23    24   am
    26    23    25    2
    27     4     5   ar
    28     5     6    1
    29     5     1   ar
    30    18     9   ar
    31    17    12   ar
    32    22    20    1
    33    33    34    1
    34    24    26    1
    35    24    27    1
    36     6     7    1
    37     6     8    1
@<TRIPOS>MOLECULE
*****
 34 37 0 0 0
SMALL
GASTEIGER

@<TRIPOS>ATOM
      1 N         140.6111  140.5190  167.5689 N.ar    1  UNL1       -0.2417
      2 N         141.3698  141.3532  166.5797 N.ar    1  UNL1       -0.1682
      3 C         140.6664  141.2592  165.2581 C.ar    1  UNL1        0.1079
      4 C         139.4731  140.3669  165.4306 C.ar    1  UNL1        0.1031
      5 C         139.4389  139.9095  166.8587 C.ar    1  UNL1        0.1279
      6 N         138.4126  139.0018  167.4695 N.pl3   1  UNL1       -0.3427
      7 H         137.6760  138.6505  166.9188 H       1  UNL1        0.1437
      8 H         138.4756  138.7574  168.4211 H       1  UNL1        0.1437
      9 C         141.0833  141.9382  163.9872 C.ar    1  UNL1        0.0197
     10 C         142.2868  141.4508  163.2363 C.ar    1  UNL1        0.0031
     11 C         142.7036  142.1299  161.9655 C.ar    1  UNL1        0.0193
     12 C         141.9169  143.2963  161.4455 C.ar    1  UNL1        0.0844
     13 N         142.3338  143.9754  160.1745 N.ar    1  UNL1       -0.2117
     14 C         141.5470  145.1418  159.6545 C.ar    1  UNL1        0.2247
     15 C         140.3434  145.6292  160.4055 C.ar    1  UNL1        0.0577
     16 C         139.9266  144.9502  161.6763 C.ar    1  UNL1        0.0063
     17 C         140.7133  143.7837  162.1963 C.ar    1  UNL1        0.0180
     18 C         140.2965  143.1047  163.4672 C.ar    1  UNL1        0.0031
     19 O         141.9638  145.8209  158.3837 O.3     1  UNL1       -0.4640
     20 C         140.9893  145.9568  157.2515 C.3     1  UNL1        0.1678
     21 C         139.7531  146.5752  156.6686 C.3     1  UNL1        0.0473
     22 C         140.5375  145.5740  155.8733 C.3     1  UNL1        0.0473
     23 C         138.4870  139.9970  164.3625 C.2     1  UNL1        0.2470
     24 N         137.4116  140.9649  163.9667 N.am    1  UNL1       -0.3252
     25 O         138.5764  138.6590  163.6902 O.2     1  UNL1       -0.2702
     26 H         137.3530  141.8430  164.4079 H       1  UNL1        0.1453
     27 H         136.7645  140.7220  163.2657 H       1  UNL1        0.1453
     28 C         139.7574  141.1264  169.4134 C.3     1  UNL1        0.0246
     29 C         140.9629  140.3280  169.0145 C.3     1  UNL1        0.0903
     30 C         142.1685  139.5296  168.6156 C.3     1  UNL1        0.0246
     31 C         141.3147  140.1370  170.4601 C.3     1  UNL1        0.0543
     32 C         141.0225  141.2227  171.4529 C.3     1  UNL1        0.1391
     33 O         142.1097  142.1664  171.8740 O.3     1  UNL1       -0.3819
     34 H         142.7902  141.6780  172.3632 H       1  UNL1        0.2104
@<TRIPOS>BOND
     1    28    29    1
     2    29    30    1
     3    29    31    1
     4    31    32    1
     5    32    33    1
     6    29     1    1
     7     1     2   ar
     8     2     3   ar
     9     3     9    1
    10     9    10   ar
    11    10    11   ar
    12    11    12   ar
    13    12    13   ar
    14    13    14   ar
    15    14    19    1
    16    19    20    1
    17    20    21    1
    18    21    22    1
    19    14    15   ar
    20    15    16   ar
    21    16    17   ar
    22    17    18   ar
    23     3     4   ar
    24     4    23    1
    25    23    24   am
    26    23    25    2
    27     4     5   ar
    28     5     6    1
    29     5     1   ar
    30    18     9   ar
    31    17    12   ar
    32    22    20    1
    33    33    34    1
    34    24    26    1
    35    24    27    1
    36     6     7    1
    37     6     8    1
@<TRIPOS>MOLECULE
*****
 34 37 0 0 0
SMALL
GASTEIGER

@<TRIPOS>ATOM
      1 N         140.4089  140.8034  167.4936 N.ar    1  UNL1       -0.2417
      2 N         139.5061  140.9997  166.3119 N.ar    1  UNL1       -0.1682
      3 C         139.9980  140.1194  165.2015 C.ar    1  UNL1        0.1079
      4 C         141.2048  139.3791  165.6968 C.ar    1  UNL1        0.1031
      5 C         141.4588  139.8018  167.1134 C.ar    1  UNL1        0.1279
      6 N         142.5680  139.3094  167.9951 N.pl3   1  UNL1       -0.3427
      7 H         143.2115  138.6474  167.6533 H       1  UNL1        0.1437
      8 H         142.6523  139.6481  168.9156 H       1  UNL1        0.1437
      9 C         139.3898  140.0004  163.8354 C.ar    1  UNL1        0.0197
     10 C         138.5899  138.7841  163.4740 C.ar    1  UNL1        0.0031
     11 C         137.9818  138.6651  162.1080 C.ar    1  UNL1        0.0193
     12 C         138.1734  139.7625  161.1035 C.ar    1  UNL1        0.0844
     13 N         137.5652  139.6434  159.7374 N.ar    1  UNL1       -0.2117
     14 C         137.7569  140.7408  158.7329 C.ar    1  UNL1        0.2247
     15 C         138.5568  141.9572  159.0945 C.ar    1  UNL1        0.0577
     16 C         139.1649  142.0762  160.4605 C.ar    1  UNL1        0.0063
     17 C         138.9733  140.9788  161.4650 C.ar    1  UNL1        0.0180
     18 C         139.5814  141.0978  162.8309 C.ar    1  UNL1        0.0031
     19 O         137.1487  140.6219  157.3670 O.3     1  UNL1       -0.4640
     20 C         137.2852  141.7472  156.3846 C.3     1  UNL1        0.1678
     21 C         136.6776  142.8878  155.6232 C.3     1  UNL1        0.0473
     22 C         138.1293  142.5557  155.4445 C.3     1  UNL1        0.0473
     23 C         142.0154  138.3897  164.9132 C.2     1  UNL1        0.2470
     24 N         143.4014  138.7447  164.4628 N.am    1  UNL1       -0.3252
     25 O         141.4399  137.0451  164.5800 O.2     1  UNL1       -0.2702
     26 H         143.7791  139.6272  164.6815 H       1  UNL1        0.1453
     27 H         143.9333  138.0953  163.9485 H       1  UNL1        0.1453
     28 C         141.1923  142.5820  168.3438 C.3     1  UNL1        0.0246
     29 C         140.2838  141.4885  168.8222 C.3     1  UNL1        0.0903
     30 C         139.3754  140.3949  169.3005 C.3     1  UNL1        0.0246
     31 C         140.1588  142.1735  170.1507 C.3     1  UNL1        0.0543
     32 C         140.9074  141.6473  171.3393 C.3     1  UNL1        0.1391
     33 O         142.0714  142.4148  171.8923 O.3     1  UNL1       -0.3819
     34 H         142.7897  142.4270  171.2405 H       1  UNL1        0.2104
@<TRIPOS>BOND
     1    28    29    1
     2    29    30    1
     3    29    31    1
     4    31    32    1
     5    32    33    1
     6    29     1    1
     7     1     2   ar
     8     2     3   ar
     9     3     9    1
    10     9    10   ar
    11    10    11   ar
    12    11    12   ar
    13    12    13   ar
    14    13    14   ar
    15    14    19    1
    16    19    20    1
    17    20    21    1
    18    21    22    1
    19    14    15   ar
    20    15    16   ar
    21    16    17   ar
    22    17    18   ar
    23     3     4   ar
    24     4    23    1
    25    23    24   am
    26    23    25    2
    27     4     5   ar
    28     5     6    1
    29     5     1   ar
    30    18     9   ar
    31    17    12   ar
    32    22    20    1
    33    33    34    1
    34    24    26    1
    35    24    27    1
    36     6     7    1
    37     6     8    1
@<TRIPOS>MOLECULE
*****
 34 37 0 0 0
SMALL
GASTEIGER

@<TRIPOS>ATOM
      1 N         141.5480  140.4357  167.5700 N.ar    1  UNL1       -0.2417
      2 N         142.4530  140.4417  166.3738 N.ar    1  UNL1       -0.1682
      3 C         141.7071  139.8303  165.2250 C.ar    1  UNL1        0.1079
      4 C         140.3410  139.4465  165.7111 C.ar    1  UNL1        0.1031
      5 C         140.2426  139.8206  167.1604 C.ar    1  UNL1        0.1279
      6 N         139.0485  139.6156  168.0448 N.pl3   1  UNL1       -0.3427
      7 H         138.2327  139.2008  167.6821 H       1  UNL1        0.1437
      8 H         139.0807  139.8958  168.9880 H       1  UNL1        0.1437
      9 C         142.2347  139.6368  163.8342 C.ar    1  UNL1        0.0197
     10 C         142.6024  138.2635  163.3559 C.ar    1  UNL1        0.0031
     11 C         143.1300  138.0701  161.9651 C.ar    1  UNL1        0.0193
     12 C         143.2898  139.2499  161.0527 C.ar    1  UNL1        0.0844
     13 N         143.8174  139.0564  159.6619 N.ar    1  UNL1       -0.2117
     14 C         143.9772  140.2362  158.7495 C.ar    1  UNL1        0.2247
     15 C         143.6094  141.6095  159.2279 C.ar    1  UNL1        0.0577
     16 C         143.0818  141.8030  160.6186 C.ar    1  UNL1        0.0063
     17 C         142.9220  140.6232  161.5311 C.ar    1  UNL1        0.0180
     18 C         142.3945  140.8166  162.9218 C.ar    1  UNL1        0.0031
     19 O         144.5047  140.0428  157.3588 O.3     1  UNL1       -0.4640
     20 C         145.4007  141.0780  156.7457 C.3     1  UNL1        0.1678
     21 C         146.0305  141.6973  155.5333 C.3     1  UNL1        0.0473
     22 C         146.3226  142.2515  156.8962 C.3     1  UNL1        0.0473
     23 C         139.2625  138.8017  164.8919 C.2     1  UNL1        0.2470
     24 N         138.5612  139.5871  163.8236 N.am    1  UNL1       -0.3252
     25 O         138.8854  137.3713  165.1410 O.2     1  UNL1       -0.2702
     26 H         138.8087  140.5258  163.6602 H       1  UNL1        0.1453
     27 H         137.8534  139.1638  163.2860 H       1  UNL1        0.1453
     28 C         142.4332  139.6074  169.3108 C.3     1  UNL1        0.0246
     29 C         141.8884  140.9537  168.9359 C.3     1  UNL1        0.0903
     30 C         141.3437  142.3001  168.5610 C.3     1  UNL1        0.0246
     31 C         142.2289  141.4718  170.3018 C.3     1  UNL1        0.0543
     32 C         141.1391  141.7255  171.3008 C.3     1  UNL1        0.1391
     33 O         140.6492  140.6100  172.1756 O.3     1  UNL1       -0.3819
     34 H         140.2145  139.9371  171.6286 H       1  UNL1        0.2104
@<TRIPOS>BOND
     1    28    29    1
     2    29    30    1
     3    29    31    1
     4    31    32    1
     5    32    33    1
     6    29     1    1
     7     1     2   ar
     8     2     3   ar
     9     3     9    1
    10     9    10   ar
    11    10    11   ar
    12    11    12   ar
    13    12    13   ar
    14    13    14   ar
    15    14    19    1
    16    19    20    1
    17    20    21    1
    18    21    22    1
    19    14    15   ar
    20    15    16   ar
    21    16    17   ar
    22    17    18   ar
    23     3     4   ar
    24     4    23    1
    25    23    24   am
    26    23    25    2
    27     4     5   ar
    28     5     6    1
    29     5     1   ar
    30    18     9   ar
    31    17    12   ar
    32    22    20    1
    33    33    34    1
    34    24    26    1
    35    24    27    1
    36     6     7    1
    37     6     8    1
@<TRIPOS>MOLECULE
*****
 34 37 0 0 0
SMALL
GASTEIGER

@<TRIPOS>ATOM
      1 N         142.0481  140.5226  166.9513 N.ar    1  UNL1       -0.2417
      2 N         141.8365  139.6594  165.7430 N.ar    1  UNL1       -0.1682
      3 C         142.7090  140.1828  164.6408 C.ar    1  UNL1        0.1079
      4 C         143.4599  141.3695  165.1679 C.ar    1  UNL1        0.1031
      5 C         143.0514  141.5796  166.5958 C.ar    1  UNL1        0.1279
      6 N         143.5574  142.6574  167.5082 N.pl3   1  UNL1       -0.3427
      7 H         144.2193  143.3086  167.1811 H       1  UNL1        0.1437
      8 H         143.2275  142.7136  168.4341 H       1  UNL1        0.1437
      9 C         142.8126  139.6184  163.2548 C.ar    1  UNL1        0.0197
     10 C         143.9587  138.7204  162.8943 C.ar    1  UNL1        0.0031
     11 C         144.0621  138.1561  161.5084 C.ar    1  UNL1        0.0193
     12 C         143.0195  138.4899  160.4829 C.ar    1  UNL1        0.0844
     13 N         143.1230  137.9255  159.0969 N.ar    1  UNL1       -0.2117
     14 C         142.0803  138.2592  158.0715 C.ar    1  UNL1        0.2247
     15 C         140.9342  139.1573  158.4321 C.ar    1  UNL1        0.0577
     16 C         140.8307  139.7216  159.8180 C.ar    1  UNL1        0.0063
     17 C         141.8734  139.3879  160.8434 C.ar    1  UNL1        0.0180
     18 C         141.7699  139.9521  162.2293 C.ar    1  UNL1        0.0031
     19 O         142.1838  137.6950  156.6856 O.3     1  UNL1       -0.4640
     20 C         142.4338  136.2290  156.4894 C.3     1  UNL1        0.1678
     21 C         142.0847  134.9288  155.8278 C.3     1  UNL1        0.0473
     22 C         143.2158  134.9901  156.8111 C.3     1  UNL1        0.0473
     23 C         144.4460  142.2004  164.4016 C.2     1  UNL1        0.2470
     24 N         145.7819  141.6275  164.0313 N.am    1  UNL1       -0.3252
     25 O         144.0962  143.6043  164.0056 O.2     1  UNL1       -0.2702
     26 H         146.0115  140.7061  164.2912 H       1  UNL1        0.1453
     27 H         146.4291  142.1729  163.5284 H       1  UNL1        0.1453
     28 C         140.2570  141.2486  167.8258 C.3     1  UNL1        0.0246
     29 C         141.3746  140.3579  168.2814 C.3     1  UNL1        0.0903
     30 C         142.4922  139.4672  168.7369 C.3     1  UNL1        0.0246
     31 C         140.7012  140.1932  169.6115 C.3     1  UNL1        0.0543
     32 C         141.1897  140.9664  170.8004 C.3     1  UNL1        0.1391
     33 O         140.7038  140.6146  172.1752 O.3     1  UNL1       -0.3819
     34 H         139.7539  140.8005  172.2398 H       1  UNL1        0.2104
@<TRIPOS>BOND
     1    28    29    1
     2    29    30    1
     3    29    31    1
     4    31    32    1
     5    32    33    1
     6    29     1    1
     7     1     2   ar
     8     2     3   ar
     9     3     9    1
    10     9    10   ar
    11    10    11   ar
    12    11    12   ar
    13    12    13   ar
    14    13    14   ar
    15    14    19    1
    16    19    20    1
    17    20    21    1
    18    21    22    1
    19    14    15   ar
    20    15    16   ar
    21    16    17   ar
    22    17    18   ar
    23     3     4   ar
    24     4    23    1
    25    23    24   am
    26    23    25    2
    27     4     5   ar
    28     5     6    1
    29     5     1   ar
    30    18     9   ar
    31    17    12   ar
    32    22    20    1
    33    33    34    1
    34    24    26    1
    35    24    27    1
    36     6     7    1
    37     6     8    1
@<TRIPOS>MOLECULE
*****
 34 37 0 0 0
SMALL
GASTEIGER

@<TRIPOS>ATOM
      1 N         140.7951  142.0845  167.3636 N.ar    1  UNL1       -0.2417
      2 N         140.0980  142.6166  166.1466 N.ar    1  UNL1       -0.1682
      3 C         141.1457  143.0562  165.1673 C.ar    1  UNL1        0.1079
      4 C         142.4903  142.7958  165.7790 C.ar    1  UNL1        0.1031
      5 C         142.2736  142.1953  167.1363 C.ar    1  UNL1        0.1279
      6 N         143.3471  141.7787  168.0977 N.pl3   1  UNL1       -0.3427
      7 H         144.2949  141.8919  167.8566 H       1  UNL1        0.1437
      8 H         143.1038  141.3921  168.9698 H       1  UNL1        0.1437
      9 C         140.8931  143.6517  163.8139 C.ar    1  UNL1        0.0197
     10 C         140.5789  145.1126  163.6841 C.ar    1  UNL1        0.0031
     11 C         140.3263  145.7080  162.3307 C.ar    1  UNL1        0.0193
     12 C         140.3879  144.8425  161.1072 C.ar    1  UNL1        0.0844
     13 N         140.1352  145.4380  159.7538 N.ar    1  UNL1       -0.2117
     14 C         140.1968  144.5724  158.5302 C.ar    1  UNL1        0.2247
     15 C         140.5109  143.1114  158.6601 C.ar    1  UNL1        0.0577
     16 C         140.7635  142.5160  160.0135 C.ar    1  UNL1        0.0063
     17 C         140.7020  143.3816  161.2370 C.ar    1  UNL1        0.0180
     18 C         140.9546  142.7861  162.5904 C.ar    1  UNL1        0.0031
     19 O         139.9442  145.1679  157.1769 O.3     1  UNL1       -0.4640
     20 C         140.6328  144.6045  155.9692 C.3     1  UNL1        0.1678
     21 C         141.7781  144.6217  155.0006 C.3     1  UNL1        0.0473
     22 C         140.6803  143.6114  154.8460 C.3     1  UNL1        0.0473
     23 C         143.8184  143.0852  165.1447 C.2     1  UNL1        0.2470
     24 N         144.2328  142.3516  163.9038 N.am    1  UNL1       -0.3252
     25 O         144.7323  144.1084  165.7516 O.2     1  UNL1       -0.2702
     26 H         143.6331  141.6801  163.5055 H       1  UNL1        0.1453
     27 H         145.1045  142.5416  163.4876 H       1  UNL1        0.1453
     28 C         140.3250  142.8544  169.2835 C.3     1  UNL1        0.0246
     29 C         140.1303  141.5376  168.5920 C.3     1  UNL1        0.0903
     30 C         139.9357  140.2209  167.9005 C.3     1  UNL1        0.0246
     31 C         139.4656  140.9907  169.8204 C.3     1  UNL1        0.0543
     32 C         140.2344  140.1096  170.7599 C.3     1  UNL1        0.1391
     33 O         140.6748  140.6382  172.0927 O.3     1  UNL1       -0.3819
     34 H         141.3274  141.3436  171.9612 H       1  UNL1        0.2104
@<TRIPOS>BOND
     1    28    29    1
     2    29    30    1
     3    29    31    1
     4    31    32    1
     5    32    33    1
     6    29     1    1
     7     1     2   ar
     8     2     3   ar
     9     3     9    1
    10     9    10   ar
    11    10    11   ar
    12    11    12   ar
    13    12    13   ar
    14    13    14   ar
    15    14    19    1
    16    19    20    1
    17    20    21    1
    18    21    22    1
    19    14    15   ar
    20    15    16   ar
    21    16    17   ar
    22    17    18   ar
    23     3     4   ar
    24     4    23    1
    25    23    24   am
    26    23    25    2
    27     4     5   ar
    28     5     6    1
    29     5     1   ar
    30    18     9   ar
    31    17    12   ar
    32    22    20    1
    33    33    34    1
    34    24    26    1
    35    24    27    1
    36     6     7    1
    37     6     8    1
@<TRIPOS>MOLECULE
*****
 34 37 0 0 0
SMALL
GASTEIGER

@<TRIPOS>ATOM
      1 N         141.4832  140.5620  167.5773 N.ar    1  UNL1       -0.2417
      2 N         142.1717  140.7232  166.2544 N.ar    1  UNL1       -0.1682
      3 C         141.2250  140.2734  165.1814 C.ar    1  UNL1        0.1079
      4 C         139.9514  139.8343  165.8410 C.ar    1  UNL1        0.1031
      5 C         140.1110  140.0126  167.3218 C.ar    1  UNL1        0.1279
      6 N         139.0795  139.6970  168.3641 N.pl3   1  UNL1       -0.3427
      7 H         138.2029  139.3378  168.0962 H       1  UNL1        0.1437
      8 H         139.2791  139.8490  169.3161 H       1  UNL1        0.1437
      9 C         141.5030  140.2644  163.7073 C.ar    1  UNL1        0.0197
     10 C         141.3753  141.5299  162.9123 C.ar    1  UNL1        0.0031
     11 C         141.6534  141.5209  161.4383 C.ar    1  UNL1        0.0193
     12 C         142.0592  140.2463  160.7595 C.ar    1  UNL1        0.0844
     13 N         142.3373  140.2373  159.2854 N.ar    1  UNL1       -0.2117
     14 C         142.7431  138.9628  158.6066 C.ar    1  UNL1        0.2247
     15 C         142.8708  137.6972  159.4017 C.ar    1  UNL1        0.0577
     16 C         142.5927  137.7063  160.8756 C.ar    1  UNL1        0.0063
     17 C         142.1869  138.9808  161.5545 C.ar    1  UNL1        0.0180
     18 C         141.9089  138.9899  163.0285 C.ar    1  UNL1        0.0031
     19 O         143.0212  138.9537  157.1326 O.3     1  UNL1       -0.4640
     20 C         143.1884  137.6505  156.4089 C.3     1  UNL1        0.1678
     21 C         144.0501  136.6918  155.6418 C.3     1  UNL1        0.0473
     22 C         142.6164  136.3520  155.9225 C.3     1  UNL1        0.0473
     23 C         138.7323  139.3090  165.1426 C.2     1  UNL1        0.2470
     24 N         137.7406  140.2628  164.5454 N.am    1  UNL1       -0.3252
     25 O         138.5049  137.8297  165.0414 O.2     1  UNL1       -0.2702
     26 H         137.8898  141.2336  164.6117 H       1  UNL1        0.1453
     27 H         136.9405  139.9179  164.0870 H       1  UNL1        0.1453
     28 C         142.5084  139.4681  169.0781 C.3     1  UNL1        0.0246
     29 C         142.0648  140.8922  168.9200 C.3     1  UNL1        0.0903
     30 C         141.6212  142.3163  168.7619 C.3     1  UNL1        0.0246
     31 C         142.6464  141.2224  170.2626 C.3     1  UNL1        0.0543
     32 C         141.7424  141.5904  171.4016 C.3     1  UNL1        0.1391
     33 O         140.7340  140.6021  171.9081 O.3     1  UNL1       -0.3819
     34 H         140.0700  140.4366  171.2207 H       1  UNL1        0.2104
@<TRIPOS>BOND
     1    28    29    1
     2    29    30    1
     3    29    31    1
     4    31    32    1
     5    32    33    1
     6    29     1    1
     7     1     2   ar
     8     2     3   ar
     9     3     9    1
    10     9    10   ar
    11    10    11   ar
    12    11    12   ar
    13    12    13   ar
    14    13    14   ar
    15    14    19    1
    16    19    20    1
    17    20    21    1
    18    21    22    1
    19    14    15   ar
    20    15    16   ar
    21    16    17   ar
    22    17    18   ar
    23     3     4   ar
    24     4    23    1
    25    23    24   am
    26    23    25    2
    27     4     5   ar
    28     5     6    1
    29     5     1   ar
    30    18     9   ar
    31    17    12   ar
    32    22    20    1
    33    33    34    1
    34    24    26    1
    35    24    27    1
    36     6     7    1
    37     6     8    1
@<TRIPOS>MOLECULE
*****
 34 37 0 0 0
SMALL
GASTEIGER

@<TRIPOS>ATOM
      1 N         143.4337  142.3447  158.9095 N.ar    1  UNL1       -0.2417
      2 N         143.2217  141.5534  160.1660 N.ar    1  UNL1       -0.1682
      3 C         142.3544  142.3635  161.0834 C.ar    1  UNL1        0.1079
      4 C         142.0302  143.6555  160.3938 C.ar    1  UNL1        0.1031
      5 C         142.6972  143.6440  159.0503 C.ar    1  UNL1        0.1279
      6 N         142.6382  144.7393  158.0272 N.pl3   1  UNL1       -0.3427
      7 H         142.1258  145.5592  158.2128 H       1  UNL1        0.1437
      8 H         143.1118  144.6383  157.1700 H       1  UNL1        0.1437
      9 C         141.8923  141.9535  162.4503 C.ar    1  UNL1        0.0197
     10 C         142.6780  142.3614  163.6612 C.ar    1  UNL1        0.0031
     11 C         142.2159  141.9514  165.0281 C.ar    1  UNL1        0.0193
     12 C         140.9682  141.1335  165.1840 C.ar    1  UNL1        0.0844
     13 N         140.5061  140.7234  166.5510 N.ar    1  UNL1       -0.2117
     14 C         139.2585  139.9055  166.7069 C.ar    1  UNL1        0.2247
     15 C         138.4728  139.4977  165.4959 C.ar    1  UNL1        0.0577
     16 C         138.9349  139.9077  164.1290 C.ar    1  UNL1        0.0063
     17 C         140.1826  140.7256  163.9731 C.ar    1  UNL1        0.0180
     18 C         140.6447  141.1356  162.6062 C.ar    1  UNL1        0.0031
     19 O         138.7964  139.4955  168.0737 O.3     1  UNL1       -0.4640
     20 C         139.3383  140.1895  169.2882 C.3     1  UNL1        0.1678
     21 C         140.0837  140.1393  170.5889 C.3     1  UNL1        0.0473
     22 C         139.5313  141.4419  170.0909 C.3     1  UNL1        0.0473
     23 C         141.1871  144.7645  160.9500 C.2     1  UNL1        0.2470
     24 N         141.6373  145.5083  162.1723 N.am    1  UNL1       -0.3252
     25 O         139.8937  145.1296  160.2838 O.2     1  UNL1       -0.2702
     26 H         142.4862  145.2686  162.6095 H       1  UNL1        0.1453
     27 H         141.0839  146.2361  162.5373 H       1  UNL1        0.1453
     28 C         143.0333  141.2292  157.1502 C.3     1  UNL1        0.0246
     29 C         144.2403  141.9128  157.7210 C.3     1  UNL1        0.0903
     30 C         145.4473  142.5963  158.2917 C.3     1  UNL1        0.0246
     31 C         145.0469  141.4808  156.5324 C.3     1  UNL1        0.0543
     32 C         146.3324  142.1806  156.2040 C.3     1  UNL1        0.1391
     33 O         147.5350  141.3851  155.7908 O.3     1  UNL1       -0.3819
     34 H         147.8330  140.8392  156.5352 H       1  UNL1        0.2104
@<TRIPOS>BOND
     1    28    29    1
     2    29    30    1
     3    29    31    1
     4    31    32    1
     5    32    33    1
     6    29     1    1
     7     1     2   ar
     8     2     3   ar
     9     3     9    1
    10     9    10   ar
    11    10    11   ar
    12    11    12   ar
    13    12    13   ar
    14    13    14   ar
    15    14    19    1
    16    19    20    1
    17    20    21    1
    18    21    22    1
    19    14    15   ar
    20    15    16   ar
    21    16    17   ar
    22    17    18   ar
    23     3     4   ar
    24     4    23    1
    25    23    24   am
    26    23    25    2
    27     4     5   ar
    28     5     6    1
    29     5     1   ar
    30    18     9   ar
    31    17    12   ar
    32    22    20    1
    33    33    34    1
    34    24    26    1
    35    24    27    1
    36     6     7    1
    37     6     8    1
