@<TRIPOS>MOLECULE
*****
 35 39 0 0 0
SMALL
GASTEIGER

@<TRIPOS>ATOM
      1 C         141.2285  144.1099  163.0774 C.2     1  UNL1        0.2248
      2 O         140.7096  145.5142  162.9845 O.2     1  UNL1       -0.2749
      3 N         141.8675  143.4658  161.8829 N.am    1  UNL1       -0.2760
      4 C         142.3864  142.0615  161.9759 C.3     1  UNL1        0.1149
      5 C         143.0254  141.4175  160.7814 C.3     1  UNL1        0.1137
      6 N         143.1456  142.1777  159.4939 N.pl3   1  UNL1       -0.2897
      7 C         142.6267  143.5821  159.4009 C.3     1  UNL1        0.1137
      8 C         141.9877  144.2262  160.5955 C.3     1  UNL1        0.1149
      9 C         143.7846  141.5337  158.2994 C.ar    1  UNL1        0.1317
     10 C         145.0779  142.0695  157.7606 C.ar    1  UNL1        0.0382
     11 C         145.7170  141.4255  156.5661 C.ar    1  UNL1        0.0757
     12 C         145.0627  140.2456  155.9104 C.ar    1  UNL1        0.0246
     13 C         143.7694  139.7098  156.4492 C.ar    1  UNL1        0.1002
     14 N         143.1303  140.3538  157.6437 N.ar    1  UNL1       -0.2292
     15 C         147.0102  141.9613  156.0273 C.3     1  UNL1        0.4187
     16 F         148.3034  142.4971  155.4885 F       1  UNL1       -0.1659
     17 F         147.1622  142.8210  157.2471 F       1  UNL1       -0.1659
     18 F         146.8582  141.1016  154.8075 F       1  UNL1       -0.1659
     19 C         141.1083  143.3495  164.3649 C.3     1  UNL1        0.0704
     20 C         142.6058  143.4363  164.3732 C.3     1  UNL1        0.0100
     21 C         143.1032  142.7447  165.6078 C.3     1  UNL1        0.0164
     22 C         141.9133  142.2305  166.3625 C.3     1  UNL1        0.0579
     23 C         140.6803  142.6043  165.5943 C.3     1  UNL1        0.0246
     24 N         141.9498  141.4751  167.6579 N.3     1  UNL1       -0.2751
     25 C         142.6430  140.1664  167.8961 C.3     1  UNL1        0.0721
     26 C         142.4211  139.7783  169.3280 C.3     1  UNL1        0.0212
     27 C         141.5907  140.8471  169.9746 C.3     1  UNL1        0.0458
     28 C         141.0622  141.0009  171.3699 C.3     1  UNL1        0.1435
     29 O         140.2424  142.2034  171.7331 O.3     1  UNL1       -0.3537
     30 C         139.9511  143.2521  170.7009 C.3     1  UNL1        0.1435
     31 C         140.4796  143.0983  169.3056 C.3     1  UNL1        0.0481
     32 C         141.2994  141.8958  168.9424 C.3     1  UNL1        0.0624
     33 C         139.0292  142.5521  163.0262 C.3     1  UNL1        0.0005
     34 C         139.6359  143.4217  164.0874 C.3     1  UNL1        0.0082
     35 C         138.7703  144.3633  164.8709 C.3     1  UNL1        0.0005
@<TRIPOS>BOND
     1    33    34    1
     2    34    35    1
     3    19    34    1
     4    19     1    1
     5     1     2    2
     6     1     3   am
     7     3     4    1
     8     4     5    1
     9     5     6    1
    10     6     9    1
    11     9    10   ar
    12    10    11   ar
    13    11    15    1
    14    15    16    1
    15    15    17    1
    16    15    18    1
    17    11    12   ar
    18    12    13   ar
    19    13    14   ar
    20     6     7    1
    21     7     8    1
    22    19    20    1
    23    20    21    1
    24    21    22    1
    25    22    24    1
    26    24    25    1
    27    25    26    1
    28    26    27    1
    29    27    28    1
    30    28    29    1
    31    29    30    1
    32    30    31    1
    33    31    32    1
    34    22    23    1
    35    23    19    1
    36     8     3    1
    37    32    24    1
    38    14     9   ar
    39    32    27    1
@<TRIPOS>MOLECULE
*****
 35 39 0 0 0
SMALL
GASTEIGER

@<TRIPOS>ATOM
      1 C         139.7965  139.3133  162.8369 C.2     1  UNL1        0.2248
      2 O         138.3499  138.9538  162.6698 O.2     1  UNL1       -0.2749
      3 N         140.6904  139.4038  161.6358 N.am    1  UNL1       -0.2760
      4 C         142.1371  139.7633  161.8029 C.3     1  UNL1        0.1149
      5 C         143.0310  139.8538  160.6018 C.3     1  UNL1        0.1137
      6 N         142.4783  139.5849  159.2336 N.pl3   1  UNL1       -0.2897
      7 C         141.0316  139.2254  159.0664 C.3     1  UNL1        0.1137
      8 C         140.1377  139.1349  160.2675 C.3     1  UNL1        0.1149
      9 C         143.3722  139.6754  158.0324 C.ar    1  UNL1        0.1317
     10 C         144.3801  140.7816  157.9292 C.ar    1  UNL1        0.0382
     11 C         145.2740  140.8721  156.7281 C.ar    1  UNL1        0.0757
     12 C         145.1600  139.8564  155.6301 C.ar    1  UNL1        0.0246
     13 C         144.1522  138.7502  155.7333 C.ar    1  UNL1        0.1002
     14 N         143.2583  138.6597  156.9344 N.ar    1  UNL1       -0.2292
     15 C         146.2818  141.9783  156.6248 C.3     1  UNL1        0.4187
     16 F         147.2896  143.0844  156.5216 F       1  UNL1       -0.1659
     17 F         145.5707  142.7275  157.7125 F       1  UNL1       -0.1659
     18 F         146.9928  141.2290  155.5371 F       1  UNL1       -0.1659
     19 C         140.3494  139.5823  164.2052 C.3     1  UNL1        0.0704
     20 C         140.4263  141.0007  163.7234 C.3     1  UNL1        0.0100
     21 C         140.9864  141.8380  164.8349 C.3     1  UNL1        0.0164
     22 C         141.2556  140.9371  166.0035 C.3     1  UNL1        0.0579
     23 C         140.8619  139.5429  165.6144 C.3     1  UNL1        0.0246
     24 N         141.8195  141.3565  167.3287 N.3     1  UNL1       -0.2751
     25 C         143.0752  142.1489  167.5415 C.3     1  UNL1        0.0721
     26 C         143.2584  142.3393  169.0180 C.3     1  UNL1        0.0212
     27 C         142.1159  141.6647  169.7177 C.3     1  UNL1        0.0458
     28 C         141.7705  141.5250  171.1707 C.3     1  UNL1        0.1435
     29 O         140.5357  140.7780  171.5796 O.3     1  UNL1       -0.3537
     30 C         139.6464  140.1706  170.5355 C.3     1  UNL1        0.1435
     31 C         139.9918  140.3102  169.0825 C.3     1  UNL1        0.0481
     32 C         141.2266  141.0573  168.6736 C.3     1  UNL1        0.0624
     33 C         138.9759  137.6016  165.1752 C.3     1  UNL1        0.0005
     34 C         140.1569  138.1076  164.4010 C.3     1  UNL1        0.0082
     35 C         141.1453  137.1389  163.8225 C.3     1  UNL1        0.0005
@<TRIPOS>BOND
     1    33    34    1
     2    34    35    1
     3    19    34    1
     4    19     1    1
     5     1     2    2
     6     1     3   am
     7     3     4    1
     8     4     5    1
     9     5     6    1
    10     6     9    1
    11     9    10   ar
    12    10    11   ar
    13    11    15    1
    14    15    16    1
    15    15    17    1
    16    15    18    1
    17    11    12   ar
    18    12    13   ar
    19    13    14   ar
    20     6     7    1
    21     7     8    1
    22    19    20    1
    23    20    21    1
    24    21    22    1
    25    22    24    1
    26    24    25    1
    27    25    26    1
    28    26    27    1
    29    27    28    1
    30    28    29    1
    31    29    30    1
    32    30    31    1
    33    31    32    1
    34    22    23    1
    35    23    19    1
    36     8     3    1
    37    32    24    1
    38    14     9   ar
    39    32    27    1
@<TRIPOS>MOLECULE
*****
 35 39 0 0 0
SMALL
GASTEIGER

@<TRIPOS>ATOM
      1 C         143.4877  141.6384  162.6370 C.2     1  UNL1        0.2248
      2 O         144.3166  142.8602  162.3721 O.2     1  UNL1       -0.2749
      3 N         143.1101  140.7286  161.5058 N.am    1  UNL1       -0.2760
      4 C         142.2812  139.5068  161.7707 C.3     1  UNL1        0.1149
      5 C         141.9036  138.5970  160.6395 C.3     1  UNL1        0.1137
      6 N         142.3549  138.9088  159.2435 N.pl3   1  UNL1       -0.2897
      7 C         143.1838  140.1306  158.9785 C.3     1  UNL1        0.1137
      8 C         143.5614  141.0406  160.1097 C.3     1  UNL1        0.1149
      9 C         141.9773  137.9990  158.1123 C.ar    1  UNL1        0.1317
     10 C         142.8869  136.8726  157.7200 C.ar    1  UNL1        0.0382
     11 C         142.5093  135.9628  156.5888 C.ar    1  UNL1        0.0757
     12 C         141.2221  136.1794  155.8499 C.ar    1  UNL1        0.0246
     13 C         140.3123  137.3058  156.2420 C.ar    1  UNL1        0.1002
     14 N         140.6899  138.2156  157.3732 N.ar    1  UNL1       -0.2292
     15 C         143.4189  134.8364  156.1966 C.3     1  UNL1        0.4187
     16 F         144.3285  133.7101  155.8045 F       1  UNL1       -0.1659
     17 F         142.5115  133.8628  156.8886 F       1  UNL1       -0.1659
     18 F         144.3263  135.8101  155.5048 F       1  UNL1       -0.1659
     19 C         143.0364  141.3264  164.0331 C.3     1  UNL1        0.0704
     20 C         141.8003  142.0759  163.6325 C.3     1  UNL1        0.0100
     21 C         140.8633  142.0840  164.8038 C.3     1  UNL1        0.0164
     22 C         141.5202  141.3397  165.9282 C.3     1  UNL1        0.0579
     23 C         142.8633  140.8714  165.4519 C.3     1  UNL1        0.0246
     24 N         140.9365  141.1047  167.2899 N.3     1  UNL1       -0.2751
     25 C         139.7228  140.2791  167.5984 C.3     1  UNL1        0.0721
     26 C         139.5003  140.3183  169.0813 C.3     1  UNL1        0.0212
     27 C         140.5765  141.1682  169.6892 C.3     1  UNL1        0.0458
     28 C         140.8628  141.5623  171.1079 C.3     1  UNL1        0.1435
     29 O         142.0368  142.4424  171.4193 O.3     1  UNL1       -0.3537
     30 C         142.9245  142.9285  170.3122 C.3     1  UNL1        0.1435
     31 C         142.6381  142.5344  168.8935 C.3     1  UNL1        0.0481
     32 C         141.4641  141.6543  168.5820 C.3     1  UNL1        0.0624
     33 C         145.6311  141.4244  163.9414 C.3     1  UNL1        0.0005
     34 C         144.3668  140.6422  164.1418 C.3     1  UNL1        0.0082
     35 C         144.4331  139.1759  164.4509 C.3     1  UNL1        0.0005
@<TRIPOS>BOND
     1    33    34    1
     2    34    35    1
     3    19    34    1
     4    19     1    1
     5     1     2    2
     6     1     3   am
     7     3     4    1
     8     4     5    1
     9     5     6    1
    10     6     9    1
    11     9    10   ar
    12    10    11   ar
    13    11    15    1
    14    15    16    1
    15    15    17    1
    16    15    18    1
    17    11    12   ar
    18    12    13   ar
    19    13    14   ar
    20     6     7    1
    21     7     8    1
    22    19    20    1
    23    20    21    1
    24    21    22    1
    25    22    24    1
    26    24    25    1
    27    25    26    1
    28    26    27    1
    29    27    28    1
    30    28    29    1
    31    29    30    1
    32    30    31    1
    33    31    32    1
    34    22    23    1
    35    23    19    1
    36     8     3    1
    37    32    24    1
    38    14     9   ar
    39    32    27    1
@<TRIPOS>MOLECULE
*****
 35 39 0 0 0
SMALL
GASTEIGER

@<TRIPOS>ATOM
      1 C         139.3710  139.1546  162.9549 C.2     1  UNL1        0.2248
      2 O         137.8750  139.0509  162.9173 O.2     1  UNL1       -0.2749
      3 N         140.1692  138.9421  161.7028 N.am    1  UNL1       -0.2760
      4 C         141.6651  139.0459  161.7404 C.3     1  UNL1        0.1149
      5 C         142.4633  138.8334  160.4884 C.3     1  UNL1        0.1137
      6 N         141.7657  138.5171  159.1987 N.pl3   1  UNL1       -0.2897
      7 C         140.2697  138.4133  159.1611 C.3     1  UNL1        0.1137
      8 C         139.4714  138.6259  160.4132 C.3     1  UNL1        0.1149
      9 C         142.5639  138.3046  157.9467 C.ar    1  UNL1        0.1317
     10 C         142.6667  136.9338  157.3463 C.ar    1  UNL1        0.0382
     11 C         143.4649  136.7213  156.0943 C.ar    1  UNL1        0.0757
     12 C         144.1603  137.8796  155.4425 C.ar    1  UNL1        0.0246
     13 C         144.0576  139.2505  156.0428 C.ar    1  UNL1        0.1002
     14 N         143.2593  139.4630  157.2948 N.ar    1  UNL1       -0.2292
     15 C         143.5677  135.3505  155.4939 C.3     1  UNL1        0.4187
     16 F         143.6705  133.9799  154.8936 F       1  UNL1       -0.1659
     17 F         143.0001  135.8717  154.2070 F       1  UNL1       -0.1659
     18 F         144.1353  134.8295  156.7809 F       1  UNL1       -0.1659
     19 C         140.0687  139.4709  164.2446 C.3     1  UNL1        0.0704
     20 C         140.0471  140.8792  163.7284 C.3     1  UNL1        0.0100
     21 C         140.7056  141.7575  164.7507 C.3     1  UNL1        0.0164
     22 C         141.1341  140.8922  165.8985 C.3     1  UNL1        0.0579
     23 C         140.7405  139.4790  165.5857 C.3     1  UNL1        0.0246
     24 N         141.8334  141.3582  167.1410 N.3     1  UNL1       -0.2751
     25 C         143.0897  142.1761  167.1916 C.3     1  UNL1        0.0721
     26 C         143.4319  142.4115  168.6329 C.3     1  UNL1        0.0212
     27 C         142.3870  141.7391  169.4732 C.3     1  UNL1        0.0458
     28 C         142.2075  141.6355  170.9588 C.3     1  UNL1        0.1435
     29 O         141.0400  140.8809  171.5223 O.3     1  UNL1       -0.3537
     30 C         140.0520  140.2299  170.6002 C.3     1  UNL1        0.1435
     31 C         140.2315  140.3335  169.1147 C.3     1  UNL1        0.0481
     32 C         141.3990  141.0881  168.5511 C.3     1  UNL1        0.0624
     33 C         138.7057  137.4452  165.1328 C.3     1  UNL1        0.0005
     34 C         139.9444  137.9965  164.4910 C.3     1  UNL1        0.0082
     35 C         141.0587  137.0735  164.0958 C.3     1  UNL1        0.0005
@<TRIPOS>BOND
     1    33    34    1
     2    34    35    1
     3    19    34    1
     4    19     1    1
     5     1     2    2
     6     1     3   am
     7     3     4    1
     8     4     5    1
     9     5     6    1
    10     6     9    1
    11     9    10   ar
    12    10    11   ar
    13    11    15    1
    14    15    16    1
    15    15    17    1
    16    15    18    1
    17    11    12   ar
    18    12    13   ar
    19    13    14   ar
    20     6     7    1
    21     7     8    1
    22    19    20    1
    23    20    21    1
    24    21    22    1
    25    22    24    1
    26    24    25    1
    27    25    26    1
    28    26    27    1
    29    27    28    1
    30    28    29    1
    31    29    30    1
    32    30    31    1
    33    31    32    1
    34    22    23    1
    35    23    19    1
    36     8     3    1
    37    32    24    1
    38    14     9   ar
    39    32    27    1
@<TRIPOS>MOLECULE
*****
 35 39 0 0 0
SMALL
GASTEIGER

@<TRIPOS>ATOM
      1 C         143.7752  142.5679  162.9674 C.2     1  UNL1        0.2248
      2 O         145.2579  142.3834  162.8350 O.2     1  UNL1       -0.2749
      3 N         142.9479  142.8859  161.7573 N.am    1  UNL1       -0.2760
      4 C         141.4651  143.0704  161.8899 C.3     1  UNL1        0.1149
      5 C         140.6378  143.3884  160.6797 C.3     1  UNL1        0.1137
      6 N         141.2931  143.5219  159.3371 N.pl3   1  UNL1       -0.2897
      7 C         142.7759  143.3374  159.2045 C.3     1  UNL1        0.1137
      8 C         143.6033  143.0194  160.4147 C.3     1  UNL1        0.1149
      9 C         140.4658  143.8400  158.1270 C.ar    1  UNL1        0.1317
     10 C         140.3323  145.2597  157.6617 C.ar    1  UNL1        0.0382
     11 C         139.5050  145.5777  156.4516 C.ar    1  UNL1        0.0757
     12 C         138.8112  144.4760  155.7067 C.ar    1  UNL1        0.0246
     13 C         138.9447  143.0562  156.1720 C.ar    1  UNL1        0.1002
     14 N         139.7720  142.7382  157.3821 N.ar    1  UNL1       -0.2292
     15 C         139.3715  146.9975  155.9863 C.3     1  UNL1        0.4187
     16 F         139.2380  148.4171  155.5210 F       1  UNL1       -0.1659
     17 F         139.2686  147.4547  157.4112 F       1  UNL1       -0.1659
     18 F         139.4744  146.5402  154.5614 F       1  UNL1       -0.1659
     19 C         143.1197  142.4344  164.3101 C.3     1  UNL1        0.0704
     20 C         142.6148  141.1338  163.7591 C.3     1  UNL1        0.0100
     21 C         141.7816  140.4743  164.8178 C.3     1  UNL1        0.0164
     22 C         141.7715  141.3672  166.0230 C.3     1  UNL1        0.0579
     23 C         142.5985  142.5786  165.7092 C.3     1  UNL1        0.0246
     24 N         141.0594  141.0963  167.3151 N.3     1  UNL1       -0.2751
     25 C         139.8147  140.2758  167.4806 C.3     1  UNL1        0.0721
     26 C         139.4531  140.2708  168.9364 C.3     1  UNL1        0.0212
     27 C         140.4744  141.0881  169.6705 C.3     1  UNL1        0.0458
     28 C         140.6285  141.4337  171.1220 C.3     1  UNL1        0.1435
     29 O         141.7755  142.2895  171.5714 O.3     1  UNL1       -0.3537
     30 C         142.7683  142.7997  170.5694 C.3     1  UNL1        0.1435
     31 C         142.6141  142.4541  169.1179 C.3     1  UNL1        0.0481
     32 C         141.4671  141.5983  168.6685 C.3     1  UNL1        0.0624
     33 C         143.3025  144.9827  163.8378 C.3     1  UNL1        0.0005
     34 C         143.7617  143.7629  164.5804 C.3     1  UNL1        0.0082
     35 C         144.8627  143.8716  165.5932 C.3     1  UNL1        0.0005
@<TRIPOS>BOND
     1    33    34    1
     2    34    35    1
     3    19    34    1
     4    19     1    1
     5     1     2    2
     6     1     3   am
     7     3     4    1
     8     4     5    1
     9     5     6    1
    10     6     9    1
    11     9    10   ar
    12    10    11   ar
    13    11    15    1
    14    15    16    1
    15    15    17    1
    16    15    18    1
    17    11    12   ar
    18    12    13   ar
    19    13    14   ar
    20     6     7    1
    21     7     8    1
    22    19    20    1
    23    20    21    1
    24    21    22    1
    25    22    24    1
    26    24    25    1
    27    25    26    1
    28    26    27    1
    29    27    28    1
    30    28    29    1
    31    29    30    1
    32    30    31    1
    33    31    32    1
    34    22    23    1
    35    23    19    1
    36     8     3    1
    37    32    24    1
    38    14     9   ar
    39    32    27    1
@<TRIPOS>MOLECULE
*****
 35 39 0 0 0
SMALL
GASTEIGER

@<TRIPOS>ATOM
      1 C         138.4761  141.0596  159.3934 C.2     1  UNL1        0.2248
      2 O         137.6284  139.9279  158.8929 O.2     1  UNL1       -0.2749
      3 N         138.7654  142.2311  158.5024 N.am    1  UNL1       -0.2760
      4 C         139.6131  143.3629  159.0030 C.3     1  UNL1        0.1149
      5 C         139.9023  144.5343  158.1119 C.3     1  UNL1        0.1137
      6 N         139.3439  144.5740  156.7203 N.pl3   1  UNL1       -0.2897
      7 C         138.4962  143.4423  156.2197 C.3     1  UNL1        0.1137
      8 C         138.2069  142.2707  157.1108 C.3     1  UNL1        0.1149
      9 C         139.6332  145.7455  155.8292 C.ar    1  UNL1        0.1317
     10 C         139.0256  147.0838  156.1288 C.ar    1  UNL1        0.0382
     11 C         139.3148  148.2552  155.2378 C.ar    1  UNL1        0.0757
     12 C         140.2117  148.0884  154.0470 C.ar    1  UNL1        0.0246
     13 C         140.8193  146.7501  153.7473 C.ar    1  UNL1        0.1002
     14 N         140.5300  145.5786  154.6384 N.ar    1  UNL1       -0.2292
     15 C         138.7073  149.5936  155.5374 C.3     1  UNL1        0.4187
     16 F         138.0998  150.9318  155.8370 F       1  UNL1       -0.1659
     17 F         139.0522  150.0598  154.1540 F       1  UNL1       -0.1659
     18 F         138.3624  149.1273  156.9208 F       1  UNL1       -0.1659
     19 C         139.0346  141.0200  160.7851 C.3     1  UNL1        0.0704
     20 C         138.0338  142.1058  161.0486 C.3     1  UNL1        0.0100
     21 C         138.1586  142.5119  162.4872 C.3     1  UNL1        0.0164
     22 C         139.2364  141.6771  163.1128 C.3     1  UNL1        0.0579
     23 C         139.7778  140.7550  162.0608 C.3     1  UNL1        0.0246
     24 N         139.6928  141.7513  164.5397 N.3     1  UNL1       -0.2751
     25 C         140.6590  142.7494  165.1056 C.3     1  UNL1        0.0721
     26 C         140.8264  142.4553  166.5670 C.3     1  UNL1        0.0212
     27 C         139.9636  141.2755  166.9042 C.3     1  UNL1        0.0458
     28 C         139.7254  140.5412  168.1903 C.3     1  UNL1        0.1435
     29 O         138.7867  139.3718  168.2235 O.3     1  UNL1       -0.3537
     30 C         138.0860  138.9367  166.9706 C.3     1  UNL1        0.1435
     31 C         138.3242  139.6710  165.6845 C.3     1  UNL1        0.0481
     32 C         139.2630  140.8404  165.6513 C.3     1  UNL1        0.0624
     33 C         139.6211  138.5022  160.5261 C.3     1  UNL1        0.0005
     34 C         139.9186  139.9424  160.2306 C.3     1  UNL1        0.0082
     35 C         141.1001  140.3051  159.3807 C.3     1  UNL1        0.0005
@<TRIPOS>BOND
     1    33    34    1
     2    34    35    1
     3    19    34    1
     4    19     1    1
     5     1     2    2
     6     1     3   am
     7     3     4    1
     8     4     5    1
     9     5     6    1
    10     6     9    1
    11     9    10   ar
    12    10    11   ar
    13    11    15    1
    14    15    16    1
    15    15    17    1
    16    15    18    1
    17    11    12   ar
    18    12    13   ar
    19    13    14   ar
    20     6     7    1
    21     7     8    1
    22    19    20    1
    23    20    21    1
    24    21    22    1
    25    22    24    1
    26    24    25    1
    27    25    26    1
    28    26    27    1
    29    27    28    1
    30    28    29    1
    31    29    30    1
    32    30    31    1
    33    31    32    1
    34    22    23    1
    35    23    19    1
    36     8     3    1
    37    32    24    1
    38    14     9   ar
    39    32    27    1
@<TRIPOS>MOLECULE
*****
 35 39 0 0 0
SMALL
GASTEIGER

@<TRIPOS>ATOM
      1 C         143.4816  141.5589  162.5391 C.2     1  UNL1        0.2248
      2 O         144.2174  142.8295  162.2322 O.2     1  UNL1       -0.2749
      3 N         143.1922  140.5764  161.4432 N.am    1  UNL1       -0.2760
      4 C         142.4563  139.3058  161.7502 C.3     1  UNL1        0.1149
      5 C         142.1669  138.3233  160.6544 C.3     1  UNL1        0.1137
      6 N         142.6133  138.6113  159.2516 N.pl3   1  UNL1       -0.2897
      7 C         143.3491  139.8819  158.9446 C.3     1  UNL1        0.1137
      8 C         143.6386  140.8645  160.0405 C.3     1  UNL1        0.1149
      9 C         142.3239  137.6288  158.1558 C.ar    1  UNL1        0.1317
     10 C         141.0940  137.7874  157.3118 C.ar    1  UNL1        0.0382
     11 C         140.8046  136.8049  156.2159 C.ar    1  UNL1        0.0757
     12 C         141.7450  135.6638  155.9640 C.ar    1  UNL1        0.0246
     13 C         142.9749  135.5051  156.8080 C.ar    1  UNL1        0.1002
     14 N         143.2644  136.4876  157.9039 N.ar    1  UNL1       -0.2292
     15 C         139.5747  136.9635  155.3719 C.3     1  UNL1        0.4187
     16 F         138.3450  137.1221  154.5280 F       1  UNL1       -0.1659
     17 F         139.0161  137.9353  156.3687 F       1  UNL1       -0.1659
     18 F         140.1334  135.9917  154.3752 F       1  UNL1       -0.1659
     19 C         143.0352  141.2708  163.9419 C.3     1  UNL1        0.0704
     20 C         141.7384  141.8703  163.4846 C.3     1  UNL1        0.0100
     21 C         140.7812  141.8399  164.6392 C.3     1  UNL1        0.0164
     22 C         141.4863  141.2217  165.8099 C.3     1  UNL1        0.0579
     23 C         142.8794  140.8700  165.3790 C.3     1  UNL1        0.0246
     24 N         140.9012  140.9950  167.1723 N.3     1  UNL1       -0.2751
     25 C         139.6821  140.1784  167.4836 C.3     1  UNL1        0.0721
     26 C         139.4600  140.2239  168.9663 C.3     1  UNL1        0.0212
     27 C         140.5418  141.0686  169.5715 C.3     1  UNL1        0.0458
     28 C         140.8308  141.4654  170.9888 C.3     1  UNL1        0.1435
     29 O         142.0106  142.3388  171.2974 O.3     1  UNL1       -0.3537
     30 C         142.9013  142.8154  170.1886 C.3     1  UNL1        0.1435
     31 C         142.6123  142.4186  168.7713 C.3     1  UNL1        0.0481
     32 C         141.4325  141.5452  168.4627 C.3     1  UNL1        0.0624
     33 C         145.6052  141.6496  163.9830 C.3     1  UNL1        0.0005
     34 C         144.4253  140.7316  164.1059 C.3     1  UNL1        0.0082
     35 C         144.6355  139.2743  164.3928 C.3     1  UNL1        0.0005
@<TRIPOS>BOND
     1    33    34    1
     2    34    35    1
     3    19    34    1
     4    19     1    1
     5     1     2    2
     6     1     3   am
     7     3     4    1
     8     4     5    1
     9     5     6    1
    10     6     9    1
    11     9    10   ar
    12    10    11   ar
    13    11    15    1
    14    15    16    1
    15    15    17    1
    16    15    18    1
    17    11    12   ar
    18    12    13   ar
    19    13    14   ar
    20     6     7    1
    21     7     8    1
    22    19    20    1
    23    20    21    1
    24    21    22    1
    25    22    24    1
    26    24    25    1
    27    25    26    1
    28    26    27    1
    29    27    28    1
    30    28    29    1
    31    29    30    1
    32    30    31    1
    33    31    32    1
    34    22    23    1
    35    23    19    1
    36     8     3    1
    37    32    24    1
    38    14     9   ar
    39    32    27    1
@<TRIPOS>MOLECULE
*****
 35 39 0 0 0
SMALL
GASTEIGER

@<TRIPOS>ATOM
      1 C         143.4858  143.1225  162.5644 C.2     1  UNL1        0.2248
      2 O         143.9564  144.5468  162.5598 O.2     1  UNL1       -0.2749
      3 N         143.5963  142.2921  161.3202 N.am    1  UNL1       -0.2760
      4 C         143.1256  140.8678  161.3249 C.3     1  UNL1        0.1149
      5 C         143.2362  140.0373  160.0806 C.3     1  UNL1        0.1137
      6 N         143.8174  140.6310  158.8318 N.pl3   1  UNL1       -0.2897
      7 C         144.2880  142.0553  158.8271 C.3     1  UNL1        0.1137
      8 C         144.1775  142.8859  160.0713 C.3     1  UNL1        0.1149
      9 C         143.9279  139.8006  157.5876 C.ar    1  UNL1        0.1317
     10 C         142.9589  138.6818  157.3440 C.ar    1  UNL1        0.0382
     11 C         143.0694  137.8513  156.0998 C.ar    1  UNL1        0.0757
     12 C         144.1490  138.1396  155.0991 C.ar    1  UNL1        0.0246
     13 C         145.1181  139.2584  155.3426 C.ar    1  UNL1        0.1002
     14 N         145.0076  140.0889  156.5868 N.ar    1  UNL1       -0.2292
     15 C         142.1003  136.7326  155.8562 C.3     1  UNL1        0.4187
     16 F         141.1313  135.6139  155.6127 F       1  UNL1       -0.1659
     17 F         141.4675  136.9901  157.1916 F       1  UNL1       -0.1659
     18 F         142.7332  136.4752  154.5208 F       1  UNL1       -0.1659
     19 C         142.9046  142.5287  163.8133 C.3     1  UNL1        0.0704
     20 C         141.6263  142.5254  163.0284 C.3     1  UNL1        0.0100
     21 C         140.5477  141.9561  163.9018 C.3     1  UNL1        0.0164
     22 C         141.1594  141.6077  165.2263 C.3     1  UNL1        0.0579
     23 C         142.6160  141.9616  165.1717 C.3     1  UNL1        0.0246
     24 N         140.4407  141.0103  166.3996 N.3     1  UNL1       -0.2751
     25 C         139.6998  139.7061  166.4089 C.3     1  UNL1        0.0721
     26 C         139.1379  139.5020  167.7846 C.3     1  UNL1        0.0212
     27 C         139.5315  140.6801  168.6256 C.3     1  UNL1        0.0458
     28 C         139.2607  141.0245  170.0601 C.3     1  UNL1        0.1435
     29 O         139.7951  142.3010  170.6387 O.3     1  UNL1       -0.3537
     30 C         140.6002  143.2333  169.7827 C.3     1  UNL1        0.1435
     31 C         140.8710  142.8889  168.3481 C.3     1  UNL1        0.0481
     32 C         140.3366  141.6123  167.7696 C.3     1  UNL1        0.0624
     33 C         144.6119  143.6451  165.4223 C.3     1  UNL1        0.0005
     34 C         144.3044  142.6562  164.3370 C.3     1  UNL1        0.0082
     35 C         145.3966  141.7950  163.7756 C.3     1  UNL1        0.0005
@<TRIPOS>BOND
     1    33    34    1
     2    34    35    1
     3    19    34    1
     4    19     1    1
     5     1     2    2
     6     1     3   am
     7     3     4    1
     8     4     5    1
     9     5     6    1
    10     6     9    1
    11     9    10   ar
    12    10    11   ar
    13    11    15    1
    14    15    16    1
    15    15    17    1
    16    15    18    1
    17    11    12   ar
    18    12    13   ar
    19    13    14   ar
    20     6     7    1
    21     7     8    1
    22    19    20    1
    23    20    21    1
    24    21    22    1
    25    22    24    1
    26    24    25    1
    27    25    26    1
    28    26    27    1
    29    27    28    1
    30    28    29    1
    31    29    30    1
    32    30    31    1
    33    31    32    1
    34    22    23    1
    35    23    19    1
    36     8     3    1
    37    32    24    1
    38    14     9   ar
    39    32    27    1
@<TRIPOS>MOLECULE
*****
 35 39 0 0 0
SMALL
GASTEIGER

@<TRIPOS>ATOM
      1 C         140.2271  143.6622  163.0545 C.2     1  UNL1        0.2248
      2 O         140.2088  145.1535  162.8935 O.2     1  UNL1       -0.2749
      3 N         140.1281  142.7764  161.8481 N.am    1  UNL1       -0.2760
      4 C         140.1464  141.2851  162.0091 C.3     1  UNL1        0.1149
      5 C         140.0473  140.3993  160.8027 C.3     1  UNL1        0.1137
      6 N         139.9300  141.0045  159.4353 N.pl3   1  UNL1       -0.2897
      7 C         139.9117  142.4958  159.2743 C.3     1  UNL1        0.1137
      8 C         140.0107  143.3818  160.4807 C.3     1  UNL1        0.1149
      9 C         139.8309  140.1187  158.2289 C.ar    1  UNL1        0.1317
     10 C         140.7167  138.9142  158.1082 C.ar    1  UNL1        0.0382
     11 C         140.6176  138.0283  156.9018 C.ar    1  UNL1        0.0757
     12 C         139.6328  138.3470  155.8161 C.ar    1  UNL1        0.0246
     13 C         138.7470  139.5515  155.9368 C.ar    1  UNL1        0.1002
     14 N         138.8461  140.4373  157.1432 N.ar    1  UNL1       -0.2292
     15 C         141.5034  136.8238  156.7810 C.3     1  UNL1        0.4187
     16 F         142.3890  135.6193  156.6602 F       1  UNL1       -0.1659
     17 F         140.4861  136.1644  155.8975 F       1  UNL1       -0.1659
     18 F         142.5205  137.4831  157.6645 F       1  UNL1       -0.1659
     19 C         140.3445  143.0569  164.4219 C.3     1  UNL1        0.0704
     20 C         141.7220  142.6787  163.9642 C.3     1  UNL1        0.0100
     21 C         142.3975  141.9451  165.0848 C.3     1  UNL1        0.0164
     22 C         141.4376  141.8699  166.2349 C.3     1  UNL1        0.0579
     23 C         140.1687  142.5570  165.8252 C.3     1  UNL1        0.0246
     24 N         141.7004  141.2215  167.5617 N.3     1  UNL1       -0.2751
     25 C         142.5315  139.9947  167.7944 C.3     1  UNL1        0.0721
     26 C         142.5229  139.7011  169.2653 C.3     1  UNL1        0.0212
     27 C         141.6864  140.7464  169.9418 C.3     1  UNL1        0.0458
     28 C         141.3219  140.9639  171.3804 C.3     1  UNL1        0.1435
     29 O         140.4491  142.1212  171.7662 O.3     1  UNL1       -0.3537
     30 C         139.9407  143.0609  170.7133 C.3     1  UNL1        0.1435
     31 C         140.3052  142.8433  169.2747 C.3     1  UNL1        0.0481
     32 C         141.1780  141.6861  168.8889 C.3     1  UNL1        0.0624
     33 C         137.7951  142.8102  163.9861 C.3     1  UNL1        0.0005
     34 C         138.9424  143.5616  164.5937 C.3     1  UNL1        0.0082
     35 C         138.6877  144.8177  165.3730 C.3     1  UNL1        0.0005
@<TRIPOS>BOND
     1    33    34    1
     2    34    35    1
     3    19    34    1
     4    19     1    1
     5     1     2    2
     6     1     3   am
     7     3     4    1
     8     4     5    1
     9     5     6    1
    10     6     9    1
    11     9    10   ar
    12    10    11   ar
    13    11    15    1
    14    15    16    1
    15    15    17    1
    16    15    18    1
    17    11    12   ar
    18    12    13   ar
    19    13    14   ar
    20     6     7    1
    21     7     8    1
    22    19    20    1
    23    20    21    1
    24    21    22    1
    25    22    24    1
    26    24    25    1
    27    25    26    1
    28    26    27    1
    29    27    28    1
    30    28    29    1
    31    29    30    1
    32    30    31    1
    33    31    32    1
    34    22    23    1
    35    23    19    1
    36     8     3    1
    37    32    24    1
    38    14     9   ar
    39    32    27    1
