@<TRIPOS>MOLECULE
*****
 35 39 0 0 0
SMALL
GASTEIGER

@<TRIPOS>ATOM
      1 C         139.6799  140.9105  160.5223 C.ar    1  UNL1        0.0564
      2 C         140.2260  140.2096  159.3139 C.ar    1  UNL1        0.0237
      3 C         140.4532  138.7272  159.3454 C.ar    1  UNL1        0.0814
      4 N         140.1341  137.9457  160.5853 N.ar    1  UNL1       -0.2454
      5 C         139.5879  138.6466  161.7938 C.ar    1  UNL1        0.0815
      6 C         139.2689  137.8652  163.0338 C.ar    1  UNL1        0.0214
      7 C         138.7227  138.5661  164.2422 C.ar    1  UNL1        0.0312
      8 C         138.4955  140.0484  164.2107 C.ar    1  UNL1        0.1402
      9 F         137.9493  140.7493  165.4192 F       1  UNL1       -0.2042
     10 C         138.8146  140.8299  162.9708 C.ar    1  UNL1        0.0313
     11 C         139.3608  140.1290  161.7624 C.ar    1  UNL1        0.0243
     12 C         140.9994  138.0263  158.1369 C.ar    1  UNL1        0.0176
     13 C         140.0647  137.5047  157.0860 C.ar    1  UNL1        0.0012
     14 C         140.6110  136.8039  155.8775 C.ar    1  UNL1       -0.0029
     15 C         142.0919  136.6246  155.7200 C.ar    1  UNL1       -0.0061
     16 C         143.0265  137.1461  156.7708 C.ar    1  UNL1       -0.0029
     17 C         142.4803  137.8470  157.9793 C.ar    1  UNL1        0.0012
     18 C         142.6381  135.9237  154.5114 C.3     1  UNL1        0.0993
     19 N         142.8741  134.4428  154.5461 N.3     1  UNL1       -0.2646
     20 C         143.6905  133.8391  155.6502 C.3     1  UNL1        0.1049
     21 C         143.9265  132.3582  155.6848 C.3     1  UNL1        0.1595
     22 O         143.3462  131.4810  154.6153 O.3     1  UNL1       -0.3508
     23 C         142.5298  132.0847  153.5112 C.3     1  UNL1        0.1595
     24 C         142.2938  133.5657  153.4766 C.3     1  UNL1        0.1049
     25 O         138.0743  142.9355  160.2552 O.2     1  UNL1       -0.2701
     26 C         139.4527  142.3928  160.4908 C.2     1  UNL1        0.2460
     27 N         140.6040  143.3325  160.6949 N.am    1  UNL1       -0.2994
     28 H         141.5086  142.9763  160.8496 H       1  UNL1        0.1498
     29 C         140.3768  144.8148  160.6634 C.3     1  UNL1        0.1070
     30 C         140.2299  145.5785  161.9462 C.3     1  UNL1        0.0936
     31 N         139.5962  144.9261  163.1390 N.3     1  UNL1       -0.2712
     32 C         138.1374  144.6191  163.3049 C.3     1  UNL1        0.0722
     33 C         137.9497  143.9694  164.6438 C.3     1  UNL1        0.0188
     34 C         139.2925  143.8749  165.3055 C.3     1  UNL1        0.0188
     35 C         140.3102  144.4662  164.3755 C.3     1  UNL1        0.0722
@<TRIPOS>BOND
     1    25    26    2
     2    26    27   am
     3    27    29    1
     4    29    30    1
     5    30    31    1
     6    31    32    1
     7    32    33    1
     8    33    34    1
     9    34    35    1
    10    26     1    1
    11     1     2   ar
    12     2     3   ar
    13     3    12    1
    14    12    13   ar
    15    13    14   ar
    16    14    15   ar
    17    15    18    1
    18    18    19    1
    19    19    20    1
    20    20    21    1
    21    21    22    1
    22    22    23    1
    23    23    24    1
    24    15    16   ar
    25    16    17   ar
    26     3     4   ar
    27     4     5   ar
    28     5     6   ar
    29     6     7   ar
    30     7     8   ar
    31     8     9    1
    32     8    10   ar
    33    10    11   ar
    34    35    31    1
    35    11     1   ar
    36    17    12   ar
    37    11     5   ar
    38    24    19    1
    39    27    28    1
@<TRIPOS>MOLECULE
*****
 35 39 0 0 0
SMALL
GASTEIGER

@<TRIPOS>ATOM
      1 C         141.1133  141.9258  161.9516 C.ar    1  UNL1        0.0564
      2 C         140.7638  142.5046  160.6127 C.ar    1  UNL1        0.0237
      3 C         141.3803  143.7987  160.1710 C.ar    1  UNL1        0.0814
      4 N         142.3463  144.5141  161.0683 N.ar    1  UNL1       -0.2454
      5 C         142.6958  143.9352  162.4073 C.ar    1  UNL1        0.0815
      6 C         143.6618  144.6506  163.3046 C.ar    1  UNL1        0.0214
      7 C         144.0113  144.0717  164.6435 C.ar    1  UNL1        0.0312
      8 C         143.3947  142.7776  165.0852 C.ar    1  UNL1        0.1402
      9 F         143.7442  142.1988  166.4242 F       1  UNL1       -0.2042
     10 C         142.4288  142.0623  164.1879 C.ar    1  UNL1        0.0313
     11 C         142.0793  142.6411  162.8490 C.ar    1  UNL1        0.0243
     12 C         141.0308  144.3776  158.8320 C.ar    1  UNL1        0.0176
     13 C         141.8430  145.5051  158.2672 C.ar    1  UNL1        0.0012
     14 C         141.4935  146.0838  156.9283 C.ar    1  UNL1       -0.0029
     15 C         140.3318  145.5351  156.1541 C.ar    1  UNL1       -0.0061
     16 C         139.5196  144.4076  156.7189 C.ar    1  UNL1       -0.0029
     17 C         139.8691  143.8289  158.0579 C.ar    1  UNL1        0.0012
     18 C         139.9823  146.1139  154.8151 C.3     1  UNL1        0.0993
     19 N         139.7180  147.5842  154.6795 N.3     1  UNL1       -0.2646
     20 C         138.8557  148.2872  155.6856 C.3     1  UNL1        0.1049
     21 C         138.5914  149.7575  155.5499 C.3     1  UNL1        0.1595
     22 O         139.1895  150.5248  154.4081 O.3     1  UNL1       -0.3508
     23 C         140.0518  149.8218  153.4020 C.3     1  UNL1        0.1595
     24 C         140.3160  148.3514  153.5377 C.3     1  UNL1        0.1049
     25 O         139.1196  140.6213  162.9879 O.2     1  UNL1       -0.2701
     26 C         140.4968  140.6316  162.3933 C.2     1  UNL1        0.2460
     27 N         141.2573  139.3478  162.2404 N.am    1  UNL1       -0.2994
     28 H         142.1611  139.3546  161.8501 H       1  UNL1        0.1498
     29 C         140.6408  138.0537  162.6820 C.3     1  UNL1        0.1070
     30 C         140.7695  137.6101  164.1092 C.3     1  UNL1        0.0936
     31 N         139.9536  138.2752  165.1778 N.3     1  UNL1       -0.2712
     32 C         140.4051  139.4020  166.0589 C.3     1  UNL1        0.0722
     33 C         139.2734  139.7535  166.9785 C.3     1  UNL1        0.0188
     34 C         138.1224  138.8439  166.6658 C.3     1  UNL1        0.0188
     35 C         138.5427  137.9302  165.5529 C.3     1  UNL1        0.0722
@<TRIPOS>BOND
     1    25    26    2
     2    26    27   am
     3    27    29    1
     4    29    30    1
     5    30    31    1
     6    31    32    1
     7    32    33    1
     8    33    34    1
     9    34    35    1
    10    26     1    1
    11     1     2   ar
    12     2     3   ar
    13     3    12    1
    14    12    13   ar
    15    13    14   ar
    16    14    15   ar
    17    15    18    1
    18    18    19    1
    19    19    20    1
    20    20    21    1
    21    21    22    1
    22    22    23    1
    23    23    24    1
    24    15    16   ar
    25    16    17   ar
    26     3     4   ar
    27     4     5   ar
    28     5     6   ar
    29     6     7   ar
    30     7     8   ar
    31     8     9    1
    32     8    10   ar
    33    10    11   ar
    34    35    31    1
    35    11     1   ar
    36    17    12   ar
    37    11     5   ar
    38    24    19    1
    39    27    28    1
@<TRIPOS>MOLECULE
*****
 35 39 0 0 0
SMALL
GASTEIGER

@<TRIPOS>ATOM
      1 C         141.2826  141.3632  163.5252 C.ar    1  UNL1        0.0564
      2 C         141.5977  140.5390  162.3122 C.ar    1  UNL1        0.0237
      3 C         140.7657  140.6809  161.0722 C.ar    1  UNL1        0.0814
      4 N         139.6186  141.6469  161.0452 N.ar    1  UNL1       -0.2454
      5 C         139.3034  142.4712  162.2582 C.ar    1  UNL1        0.0815
      6 C         138.1562  143.4372  162.2312 C.ar    1  UNL1        0.0214
      7 C         137.8411  144.2614  163.4442 C.ar    1  UNL1        0.0312
      8 C         138.6731  144.1195  164.6842 C.ar    1  UNL1        0.1402
      9 F         138.3580  144.9437  165.8972 F       1  UNL1       -0.2042
     10 C         139.8203  143.1535  164.7112 C.ar    1  UNL1        0.0313
     11 C         140.1354  142.3293  163.4982 C.ar    1  UNL1        0.0243
     12 C         141.0809  139.8567  159.8591 C.ar    1  UNL1        0.0176
     13 C         140.0047  139.0407  159.2065 C.ar    1  UNL1        0.0012
     14 C         140.3199  138.2165  157.9935 C.ar    1  UNL1       -0.0029
     15 C         141.7113  138.2083  157.4332 C.ar    1  UNL1       -0.0061
     16 C         142.7875  139.0243  158.0858 C.ar    1  UNL1       -0.0029
     17 C         142.4723  139.8485  159.2988 C.ar    1  UNL1        0.0012
     18 C         142.0265  137.3841  156.2202 C.3     1  UNL1        0.0993
     19 N         142.1805  135.8971  156.3431 N.3     1  UNL1       -0.2646
     20 C         141.3913  134.9851  155.4512 C.3     1  UNL1        0.1049
     21 C         141.5453  133.4981  155.5741 C.3     1  UNL1        0.1595
     22 O         142.4885  132.9231  156.5890 O.3     1  UNL1       -0.3508
     23 C         143.2776  133.8351  157.4808 C.3     1  UNL1        0.1595
     24 C         143.1236  135.3222  157.3579 C.3     1  UNL1        0.1049
     25 O         143.2659  142.1522  165.0064 O.2     1  UNL1       -0.2701
     26 C         142.1146  141.2213  164.7652 C.2     1  UNL1        0.2460
     27 N         141.7954  140.1487  165.7639 N.am    1  UNL1       -0.2994
     28 H         141.0398  139.5378  165.6055 H       1  UNL1        0.1498
     29 C         142.6275  140.0068  167.0039 C.3     1  UNL1        0.1070
     30 C         141.9631  139.8968  168.3443 C.3     1  UNL1        0.0936
     31 N         141.2417  141.0778  168.9230 N.3     1  UNL1       -0.2712
     32 C         140.2732  141.0450  170.0679 C.3     1  UNL1        0.0722
     33 C         139.7950  142.4458  170.3109 C.3     1  UNL1        0.0188
     34 C         140.4680  143.3444  169.3161 C.3     1  UNL1        0.0188
     35 C         141.3622  142.4989  168.4583 C.3     1  UNL1        0.0722
@<TRIPOS>BOND
     1    25    26    2
     2    26    27   am
     3    27    29    1
     4    29    30    1
     5    30    31    1
     6    31    32    1
     7    32    33    1
     8    33    34    1
     9    34    35    1
    10    26     1    1
    11     1     2   ar
    12     2     3   ar
    13     3    12    1
    14    12    13   ar
    15    13    14   ar
    16    14    15   ar
    17    15    18    1
    18    18    19    1
    19    19    20    1
    20    20    21    1
    21    21    22    1
    22    22    23    1
    23    23    24    1
    24    15    16   ar
    25    16    17   ar
    26     3     4   ar
    27     4     5   ar
    28     5     6   ar
    29     6     7   ar
    30     7     8   ar
    31     8     9    1
    32     8    10   ar
    33    10    11   ar
    34    35    31    1
    35    11     1   ar
    36    17    12   ar
    37    11     5   ar
    38    24    19    1
    39    27    28    1
@<TRIPOS>MOLECULE
*****
 35 39 0 0 0
SMALL
GASTEIGER

@<TRIPOS>ATOM
      1 C         140.7328  142.2817  162.2664 C.ar    1  UNL1        0.0564
      2 C         140.4320  142.8167  160.8977 C.ar    1  UNL1        0.0237
      3 C         141.2528  143.9385  160.3339 C.ar    1  UNL1        0.0814
      4 N         142.3743  144.5253  161.1387 N.ar    1  UNL1       -0.2454
      5 C         142.6752  143.9903  162.5074 C.ar    1  UNL1        0.0815
      6 C         143.7967  144.5771  163.3122 C.ar    1  UNL1        0.0214
      7 C         144.0975  144.0421  164.6808 C.ar    1  UNL1        0.0312
      8 C         143.2768  142.9203  165.2447 C.ar    1  UNL1        0.1402
      9 F         143.5777  142.3853  166.6134 F       1  UNL1       -0.2042
     10 C         142.1552  142.3335  164.4399 C.ar    1  UNL1        0.0313
     11 C         141.8544  142.8685  163.0712 C.ar    1  UNL1        0.0243
     12 C         140.9519  144.4735  158.9651 C.ar    1  UNL1        0.0176
     13 C         139.7516  143.9790  158.2137 C.ar    1  UNL1        0.0012
     14 C         139.4508  144.5140  156.8451 C.ar    1  UNL1       -0.0029
     15 C         140.3503  145.5435  156.2279 C.ar    1  UNL1       -0.0061
     16 C         141.5506  146.0381  156.9793 C.ar    1  UNL1       -0.0029
     17 C         141.8514  145.5030  158.3479 C.ar    1  UNL1        0.0012
     18 C         140.0494  146.0785  154.8591 C.3     1  UNL1        0.0993
     19 N         139.7727  147.5405  154.6695 N.3     1  UNL1       -0.2646
     20 C         140.3535  148.2673  153.4928 C.3     1  UNL1        0.1049
     21 C         140.0768  149.7293  153.3032 C.3     1  UNL1        0.1595
     22 O         139.2193  150.4645  154.2901 O.3     1  UNL1       -0.3508
     23 C         138.6385  149.7378  155.4668 C.3     1  UNL1        0.1595
     24 C         138.9152  148.2757  155.6564 C.3     1  UNL1        0.1049
     25 O         139.9642  139.8008  162.1974 O.2     1  UNL1       -0.2701
     26 C         139.9121  141.1599  162.8302 C.2     1  UNL1        0.2460
     27 N         139.0392  141.3971  164.0268 N.am    1  UNL1       -0.2994
     28 H         139.0050  142.2890  164.4421 H       1  UNL1        0.1498
     29 C         138.2185  140.2753  164.5907 C.3     1  UNL1        0.1070
     30 C         138.7503  139.4554  165.7287 C.3     1  UNL1        0.0936
     31 N         140.2255  139.2149  165.8546 N.3     1  UNL1       -0.2712
     32 C         141.1363  139.8354  166.8721 C.3     1  UNL1        0.0722
     33 C         142.5227  139.3157  166.6315 C.3     1  UNL1        0.0188
     34 C         142.4687  138.3739  165.4653 C.3     1  UNL1        0.0188
     35 C         141.0490  138.3116  164.9850 C.3     1  UNL1        0.0722
@<TRIPOS>BOND
     1    25    26    2
     2    26    27   am
     3    27    29    1
     4    29    30    1
     5    30    31    1
     6    31    32    1
     7    32    33    1
     8    33    34    1
     9    34    35    1
    10    26     1    1
    11     1     2   ar
    12     2     3   ar
    13     3    12    1
    14    12    13   ar
    15    13    14   ar
    16    14    15   ar
    17    15    18    1
    18    18    19    1
    19    19    20    1
    20    20    21    1
    21    21    22    1
    22    22    23    1
    23    23    24    1
    24    15    16   ar
    25    16    17   ar
    26     3     4   ar
    27     4     5   ar
    28     5     6   ar
    29     6     7   ar
    30     7     8   ar
    31     8     9    1
    32     8    10   ar
    33    10    11   ar
    34    35    31    1
    35    11     1   ar
    36    17    12   ar
    37    11     5   ar
    38    24    19    1
    39    27    28    1
@<TRIPOS>MOLECULE
*****
 35 39 0 0 0
SMALL
GASTEIGER

@<TRIPOS>ATOM
      1 C         142.1384  143.4681  162.0968 C.ar    1  UNL1        0.0564
      2 C         142.1041  143.8061  160.6358 C.ar    1  UNL1        0.0237
      3 C         140.9058  144.4952  160.0534 C.ar    1  UNL1        0.0814
      4 N         139.7419  144.8464  160.9319 N.ar    1  UNL1       -0.2454
      5 C         139.7762  144.5084  162.3930 C.ar    1  UNL1        0.0815
      6 C         138.6123  144.8596  163.2716 C.ar    1  UNL1        0.0214
      7 C         138.6467  144.5217  164.7326 C.ar    1  UNL1        0.0312
      8 C         139.8450  143.8325  165.3150 C.ar    1  UNL1        0.1402
      9 F         139.8793  143.4946  166.7761 F       1  UNL1       -0.2042
     10 C         141.0089  143.4814  164.4365 C.ar    1  UNL1        0.0313
     11 C         140.9745  143.8193  162.9755 C.ar    1  UNL1        0.0243
     12 C         140.8714  144.8331  158.5923 C.ar    1  UNL1        0.0176
     13 C         139.7228  144.3750  157.7433 C.ar    1  UNL1        0.0012
     14 C         139.6885  144.7129  156.2823 C.ar    1  UNL1       -0.0029
     15 C         140.8028  145.5090  155.6703 C.ar    1  UNL1       -0.0061
     16 C         141.9514  145.9671  156.5192 C.ar    1  UNL1       -0.0029
     17 C         141.9857  145.6292  157.9802 C.ar    1  UNL1        0.0012
     18 C         140.7685  145.8469  154.2092 C.3     1  UNL1        0.0993
     19 N         140.5205  147.2601  153.7719 N.3     1  UNL1       -0.2646
     20 C         139.7611  148.1984  154.6623 C.3     1  UNL1        0.1049
     21 C         139.5131  149.6117  154.2250 C.3     1  UNL1        0.1595
     22 O         140.0245  150.0866  152.8972 O.3     1  UNL1       -0.3508
     23 C         140.7839  149.1483  152.0068 C.3     1  UNL1        0.1595
     24 C         141.0319  147.7350  152.4442 C.3     1  UNL1        0.1049
     25 O         144.3381  143.5614  163.4762 O.2     1  UNL1       -0.2701
     26 C         143.3367  142.7790  162.6792 C.2     1  UNL1        0.2460
     27 N         143.5337  141.3076  162.4647 N.am    1  UNL1       -0.2994
     28 H         142.8764  140.7941  161.9416 H       1  UNL1        0.1498
     29 C         144.7320  140.6185  163.0471 C.3     1  UNL1        0.1070
     30 C         144.5497  139.4903  164.0188 C.3     1  UNL1        0.0936
     31 N         143.2834  138.6864  164.0058 N.3     1  UNL1       -0.2712
     32 C         142.4266  138.3716  165.1960 C.3     1  UNL1        0.0722
     33 C         141.2652  137.5468  164.7261 C.3     1  UNL1        0.0188
     34 C         141.4041  137.3519  163.2453 C.3     1  UNL1        0.0188
     35 C         142.6514  138.0563  162.8000 C.3     1  UNL1        0.0722
@<TRIPOS>BOND
     1    25    26    2
     2    26    27   am
     3    27    29    1
     4    29    30    1
     5    30    31    1
     6    31    32    1
     7    32    33    1
     8    33    34    1
     9    34    35    1
    10    26     1    1
    11     1     2   ar
    12     2     3   ar
    13     3    12    1
    14    12    13   ar
    15    13    14   ar
    16    14    15   ar
    17    15    18    1
    18    18    19    1
    19    19    20    1
    20    20    21    1
    21    21    22    1
    22    22    23    1
    23    23    24    1
    24    15    16   ar
    25    16    17   ar
    26     3     4   ar
    27     4     5   ar
    28     5     6   ar
    29     6     7   ar
    30     7     8   ar
    31     8     9    1
    32     8    10   ar
    33    10    11   ar
    34    35    31    1
    35    11     1   ar
    36    17    12   ar
    37    11     5   ar
    38    24    19    1
    39    27    28    1
@<TRIPOS>MOLECULE
*****
 35 39 0 0 0
SMALL
GASTEIGER

@<TRIPOS>ATOM
      1 C         140.2582  140.8049  163.4441 C.ar    1  UNL1        0.0564
      2 C         140.6138  139.9709  162.2491 C.ar    1  UNL1        0.0237
      3 C         140.5933  140.5783  160.8777 C.ar    1  UNL1        0.0814
      4 N         140.2173  142.0196  160.7014 N.ar    1  UNL1       -0.2454
      5 C         139.8616  142.8536  161.8964 C.ar    1  UNL1        0.0815
      6 C         139.4855  144.2950  161.7200 C.ar    1  UNL1        0.0214
      7 C         139.1299  145.1289  162.9150 C.ar    1  UNL1        0.0312
      8 C         139.1504  144.5215  164.2864 C.ar    1  UNL1        0.1402
      9 F         138.7947  145.3555  165.4814 F       1  UNL1       -0.2042
     10 C         139.5265  143.0802  164.4628 C.ar    1  UNL1        0.0313
     11 C         139.8821  142.2463  163.2678 C.ar    1  UNL1        0.0243
     12 C         140.9490  139.7443  159.6827 C.ar    1  UNL1        0.0176
     13 C         139.8871  138.9549  158.9762 C.ar    1  UNL1        0.0012
     14 C         140.2428  138.1209  157.7813 C.ar    1  UNL1       -0.0029
     15 C         141.6603  138.0764  157.2928 C.ar    1  UNL1       -0.0061
     16 C         142.7222  138.8659  157.9993 C.ar    1  UNL1       -0.0029
     17 C         142.3665  139.6998  159.1942 C.ar    1  UNL1        0.0012
     18 C         142.0159  137.2424  156.0978 C.3     1  UNL1        0.0993
     19 N         142.1473  135.7544  156.2339 N.3     1  UNL1       -0.2646
     20 C         141.3222  134.8466  155.3708 C.3     1  UNL1        0.1049
     21 C         141.4536  133.3586  155.5069 C.3     1  UNL1        0.1595
     22 O         142.4101  132.7784  156.5062 O.3     1  UNL1       -0.3508
     23 C         143.2352  133.6863  157.3694 C.3     1  UNL1        0.1595
     24 C         143.1038  135.1743  157.2332 C.3     1  UNL1        0.1049
     25 O         139.0135  139.6613  165.4172 O.2     1  UNL1       -0.2701
     26 C         140.2786  140.1975  164.8155 C.2     1  UNL1        0.2460
     27 N         141.5641  140.1263  165.5851 N.am    1  UNL1       -0.2994
     28 H         142.3944  140.4782  165.1902 H       1  UNL1        0.1498
     29 C         141.5846  139.5189  166.9565 C.3     1  UNL1        0.1070
     30 C         142.6285  139.9402  167.9479 C.3     1  UNL1        0.0936
     31 N         142.4285  141.1815  168.7658 N.3     1  UNL1       -0.2712
     32 C         141.2231  142.0737  168.7339 C.3     1  UNL1        0.0722
     33 C         141.4484  143.1923  169.7076 C.3     1  UNL1        0.0188
     34 C         142.7931  142.9914  170.3413 C.3     1  UNL1        0.0188
     35 C         143.3989  141.7487  169.7592 C.3     1  UNL1        0.0722
@<TRIPOS>BOND
     1    25    26    2
     2    26    27   am
     3    27    29    1
     4    29    30    1
     5    30    31    1
     6    31    32    1
     7    32    33    1
     8    33    34    1
     9    34    35    1
    10    26     1    1
    11     1     2   ar
    12     2     3   ar
    13     3    12    1
    14    12    13   ar
    15    13    14   ar
    16    14    15   ar
    17    15    18    1
    18    18    19    1
    19    19    20    1
    20    20    21    1
    21    21    22    1
    22    22    23    1
    23    23    24    1
    24    15    16   ar
    25    16    17   ar
    26     3     4   ar
    27     4     5   ar
    28     5     6   ar
    29     6     7   ar
    30     7     8   ar
    31     8     9    1
    32     8    10   ar
    33    10    11   ar
    34    35    31    1
    35    11     1   ar
    36    17    12   ar
    37    11     5   ar
    38    24    19    1
    39    27    28    1
@<TRIPOS>MOLECULE
*****
 35 39 0 0 0
SMALL
GASTEIGER

@<TRIPOS>ATOM
      1 C         142.9978  138.6211  158.2259 C.ar    1  UNL1        0.0564
      2 C         142.9695  138.3956  159.7086 C.ar    1  UNL1        0.0237
      3 C         143.4412  139.4725  160.6401 C.ar    1  UNL1        0.0814
      4 N         143.9410  140.7750  160.0890 N.ar    1  UNL1       -0.2454
      5 C         143.9692  141.0005  158.6063 C.ar    1  UNL1        0.0815
      6 C         144.4691  142.3030  158.0552 C.ar    1  UNL1        0.0214
      7 C         144.4973  142.5285  156.5726 C.ar    1  UNL1        0.0312
      8 C         144.0257  141.4516  155.6410 C.ar    1  UNL1        0.1402
      9 F         144.0539  141.6771  154.1583 F       1  UNL1       -0.2042
     10 C         143.5259  140.1491  156.1921 C.ar    1  UNL1        0.0313
     11 C         143.4976  139.9236  157.6748 C.ar    1  UNL1        0.0243
     12 C         143.4129  139.2469  162.1229 C.ar    1  UNL1        0.0176
     13 C         142.3380  138.3962  162.7317 C.ar    1  UNL1        0.0012
     14 C         142.3098  138.1706  164.2143 C.ar    1  UNL1       -0.0029
     15 C         143.3565  138.7959  165.0882 C.ar    1  UNL1       -0.0061
     16 C         144.4314  139.6467  164.4793 C.ar    1  UNL1       -0.0029
     17 C         144.4596  139.8722  162.9967 C.ar    1  UNL1        0.0012
     18 C         143.3282  138.5703  166.5709 C.3     1  UNL1        0.0993
     19 N         142.5414  139.4919  167.4549 N.3     1  UNL1       -0.2646
     20 C         141.7288  140.5985  166.8505 C.3     1  UNL1        0.1049
     21 C         140.9420  141.5201  167.7345 C.3     1  UNL1        0.1595
     22 O         140.9678  141.3353  169.2229 O.3     1  UNL1       -0.3508
     23 C         141.7805  140.2287  169.8272 C.3     1  UNL1        0.1595
     24 C         142.5673  139.3071  168.9432 C.3     1  UNL1        0.1049
     25 O         141.0572  137.3070  157.1046 O.2     1  UNL1       -0.2701
     26 C         142.5262  137.5442  157.2944 C.2     1  UNL1        0.2460
     27 N         143.5234  136.7045  156.5526 N.am    1  UNL1       -0.2994
     28 H         144.4875  136.8601  156.6771 H       1  UNL1        0.1498
     29 C         143.0518  135.6275  155.6210 C.3     1  UNL1        0.1070
     30 C         142.6188  134.2995  156.1678 C.3     1  UNL1        0.0936
     31 N         143.6457  133.2762  156.5531 N.3     1  UNL1       -0.2712
     32 C         144.0812  132.1072  155.7202 C.3     1  UNL1        0.0722
     33 C         145.1220  131.3507  156.4912 C.3     1  UNL1        0.0188
     34 C         145.3298  132.0522  157.8006 C.3     1  UNL1        0.0188
     35 C         144.4174  133.2423  157.8390 C.3     1  UNL1        0.0722
@<TRIPOS>BOND
     1    25    26    2
     2    26    27   am
     3    27    29    1
     4    29    30    1
     5    30    31    1
     6    31    32    1
     7    32    33    1
     8    33    34    1
     9    34    35    1
    10    26     1    1
    11     1     2   ar
    12     2     3   ar
    13     3    12    1
    14    12    13   ar
    15    13    14   ar
    16    14    15   ar
    17    15    18    1
    18    18    19    1
    19    19    20    1
    20    20    21    1
    21    21    22    1
    22    22    23    1
    23    23    24    1
    24    15    16   ar
    25    16    17   ar
    26     3     4   ar
    27     4     5   ar
    28     5     6   ar
    29     6     7   ar
    30     7     8   ar
    31     8     9    1
    32     8    10   ar
    33    10    11   ar
    34    35    31    1
    35    11     1   ar
    36    17    12   ar
    37    11     5   ar
    38    24    19    1
    39    27    28    1
@<TRIPOS>MOLECULE
*****
 35 39 0 0 0
SMALL
GASTEIGER

@<TRIPOS>ATOM
      1 C         139.0486  140.5187  162.8700 C.ar    1  UNL1        0.0564
      2 C         139.6645  140.2001  161.5399 C.ar    1  UNL1        0.0237
      3 C         140.0759  138.7932  161.2216 C.ar    1  UNL1        0.0814
      4 N         139.8715  137.7049  162.2334 N.ar    1  UNL1       -0.2454
      5 C         139.2556  138.0234  163.5635 C.ar    1  UNL1        0.0815
      6 C         139.0512  136.9351  164.5753 C.ar    1  UNL1        0.0214
      7 C         138.4353  137.2537  165.9054 C.ar    1  UNL1        0.0312
      8 C         138.0239  138.6606  166.2237 C.ar    1  UNL1        0.1402
      9 F         137.4080  138.9791  167.5539 F       1  UNL1       -0.2042
     10 C         138.2283  139.7489  165.2119 C.ar    1  UNL1        0.0313
     11 C         138.8441  139.4303  163.8818 C.ar    1  UNL1        0.0243
     12 C         140.6918  138.4746  159.8914 C.ar    1  UNL1        0.0176
     13 C         139.8230  138.3360  158.6766 C.ar    1  UNL1        0.0012
     14 C         140.4389  138.0174  157.3465 C.ar    1  UNL1       -0.0029
     15 C         141.9236  137.8376  157.2313 C.ar    1  UNL1       -0.0061
     16 C         142.7924  137.9763  158.4461 C.ar    1  UNL1       -0.0029
     17 C         142.1765  138.2948  159.7762 C.ar    1  UNL1        0.0012
     18 C         142.5395  137.5190  155.9011 C.3     1  UNL1        0.0993
     19 N         142.7101  136.0906  155.4764 N.3     1  UNL1       -0.2646
     20 C         143.5590  135.1616  156.2926 C.3     1  UNL1        0.1049
     21 C         143.7295  133.7332  155.8679 C.3     1  UNL1        0.1595
     22 O         143.0510  133.2337  154.6268 O.3     1  UNL1       -0.3508
     23 C         142.2021  134.1626  153.8105 C.3     1  UNL1        0.1595
     24 C         142.0316  135.5911  154.2353 C.3     1  UNL1        0.1049
     25 O         137.3630  142.4803  162.6236 O.2     1  UNL1       -0.2701
     26 C         138.6371  141.9256  163.1883 C.2     1  UNL1        0.2460
     27 N         139.4998  142.7777  164.0713 N.am    1  UNL1       -0.2994
     28 H         140.3360  142.4136  164.4419 H       1  UNL1        0.1498
     29 C         139.0883  144.1846  164.3896 C.3     1  UNL1        0.1070
     30 C         139.7886  145.3375  163.7334 C.3     1  UNL1        0.0936
     31 N         140.4579  145.1502  162.4041 N.3     1  UNL1       -0.2712
     32 C         139.9645  145.6723  161.0873 C.3     1  UNL1        0.0722
     33 C         140.9397  145.2527  160.0275 C.3     1  UNL1        0.0188
     34 C         142.0357  144.4713  160.6894 C.3     1  UNL1        0.0188
     35 C         141.7380  144.4079  162.1583 C.3     1  UNL1        0.0722
@<TRIPOS>BOND
     1    25    26    2
     2    26    27   am
     3    27    29    1
     4    29    30    1
     5    30    31    1
     6    31    32    1
     7    32    33    1
     8    33    34    1
     9    34    35    1
    10    26     1    1
    11     1     2   ar
    12     2     3   ar
    13     3    12    1
    14    12    13   ar
    15    13    14   ar
    16    14    15   ar
    17    15    18    1
    18    18    19    1
    19    19    20    1
    20    20    21    1
    21    21    22    1
    22    22    23    1
    23    23    24    1
    24    15    16   ar
    25    16    17   ar
    26     3     4   ar
    27     4     5   ar
    28     5     6   ar
    29     6     7   ar
    30     7     8   ar
    31     8     9    1
    32     8    10   ar
    33    10    11   ar
    34    35    31    1
    35    11     1   ar
    36    17    12   ar
    37    11     5   ar
    38    24    19    1
    39    27    28    1
@<TRIPOS>MOLECULE
*****
 35 39 0 0 0
SMALL
GASTEIGER

@<TRIPOS>ATOM
      1 C         143.2788  142.7555  159.7286 C.ar    1  UNL1        0.0564
      2 C         143.3947  142.4580  161.1942 C.ar    1  UNL1        0.0237
      3 C         142.5244  143.1827  162.1778 C.ar    1  UNL1        0.0814
      4 N         141.5382  144.2050  161.6958 N.ar    1  UNL1       -0.2454
      5 C         141.4223  144.5025  160.2301 C.ar    1  UNL1        0.0815
      6 C         140.4361  145.5248  159.7481 C.ar    1  UNL1        0.0214
      7 C         140.3202  145.8223  158.2825 C.ar    1  UNL1        0.0312
      8 C         141.1905  145.0976  157.2990 C.ar    1  UNL1        0.1402
      9 F         141.0745  145.3952  155.8333 F       1  UNL1       -0.2042
     10 C         142.1766  144.0754  157.7810 C.ar    1  UNL1        0.0313
     11 C         142.2926  143.7778  159.2466 C.ar    1  UNL1        0.0243
     12 C         142.6404  142.8851  163.6435 C.ar    1  UNL1        0.0176
     13 C         141.4942  142.2492  164.3726 C.ar    1  UNL1        0.0012
     14 C         141.6102  141.9516  165.8382 C.ar    1  UNL1       -0.0029
     15 C         142.8724  142.2900  166.5746 C.ar    1  UNL1       -0.0061
     16 C         144.0186  142.9259  165.8454 C.ar    1  UNL1       -0.0029
     17 C         143.9026  143.2235  164.3799 C.ar    1  UNL1        0.0012
     18 C         142.9883  141.9924  168.0403 C.3     1  UNL1        0.0993
     19 N         141.7527  141.8855  168.8839 N.3     1  UNL1       -0.2646
     20 C         141.1099  140.5486  169.1064 C.3     1  UNL1        0.1049
     21 C         139.8742  140.4417  169.9500 C.3     1  UNL1        0.1595
     22 O         139.2814  141.6717  170.5712 O.3     1  UNL1       -0.3508
     23 C         139.9243  143.0085  170.3488 C.3     1  UNL1        0.1595
     24 C         141.1600  143.1154  169.5051 C.3     1  UNL1        0.1049
     25 O         144.1061  140.5334  158.6666 O.2     1  UNL1       -0.2701
     26 C         144.1490  142.0308  158.7451 C.2     1  UNL1        0.2460
     27 N         145.0622  142.8034  157.8400 N.am    1  UNL1       -0.2994
     28 H         145.0904  143.7861  157.8916 H       1  UNL1        0.1498
     29 C         145.9325  142.0786  156.8565 C.3     1  UNL1        0.1070
     30 C         147.3760  142.4592  156.7095 C.3     1  UNL1        0.0936
     31 N         147.9685  142.6402  155.3434 N.3     1  UNL1       -0.2712
     32 C         147.4131  143.5019  154.2485 C.3     1  UNL1        0.0722
     33 C         148.3218  143.3855  153.0607 C.3     1  UNL1        0.0188
     34 C         149.4389  142.4517  153.4216 C.3     1  UNL1        0.0188
     35 C         149.2206  141.9911  154.8323 C.3     1  UNL1        0.0722
@<TRIPOS>BOND
     1    25    26    2
     2    26    27   am
     3    27    29    1
     4    29    30    1
     5    30    31    1
     6    31    32    1
     7    32    33    1
     8    33    34    1
     9    34    35    1
    10    26     1    1
    11     1     2   ar
    12     2     3   ar
    13     3    12    1
    14    12    13   ar
    15    13    14   ar
    16    14    15   ar
    17    15    18    1
    18    18    19    1
    19    19    20    1
    20    20    21    1
    21    21    22    1
    22    22    23    1
    23    23    24    1
    24    15    16   ar
    25    16    17   ar
    26     3     4   ar
    27     4     5   ar
    28     5     6   ar
    29     6     7   ar
    30     7     8   ar
    31     8     9    1
    32     8    10   ar
    33    10    11   ar
    34    35    31    1
    35    11     1   ar
    36    17    12   ar
    37    11     5   ar
    38    24    19    1
    39    27    28    1
