@<TRIPOS>MOLECULE
*****
 26 29 0 0 0
SMALL
GASTEIGER

@<TRIPOS>ATOM
      1 C         139.3317  143.2152  161.7504 C.3     1  UNL1        0.2535
      2 N         139.6030  142.7993  163.1658 N.pl3   1  UNL1       -0.1867
      3 C         138.8883  141.5649  163.6299 C.3     1  UNL1        0.2292
      4 C         138.9472  140.8990  164.9727 C.ar    1  UNL1        0.0247
      5 C         138.0739  139.6804  165.0189 C.ar    1  UNL1       -0.0005
      6 C         137.9889  138.8659  166.2756 C.ar    1  UNL1       -0.0002
      7 C         138.7773  139.2700  167.4860 C.ar    1  UNL1       -0.0002
      8 C         139.6506  140.4886  167.4398 C.ar    1  UNL1        0.0000
      9 C         139.7355  141.3031  166.1831 C.ar    1  UNL1        0.0303
     10 C         140.6596  142.4729  166.3497 C.3     1  UNL1        0.2588
     11 N         141.0237  143.5275  165.3470 N.2     1  UNL1       -0.0649
     12 C         140.5534  143.6727  163.9300 C.2     1  UNL1        0.2958
     13 C         141.3051  142.6057  167.6972 C.ar    1  UNL1        0.0304
     14 C         142.7097  142.1226  167.9069 C.ar    1  UNL1        0.0002
     15 C         143.3551  142.2554  169.2545 C.ar    1  UNL1       -0.0002
     16 C         142.5961  142.8712  170.3922 C.ar    1  UNL1       -0.0000
     17 C         141.1915  143.3542  170.1825 C.ar    1  UNL1       -0.0002
     18 C         140.5460  143.2215  168.8350 C.ar    1  UNL1        0.0002
     19 C         141.1067  144.8466  163.1777 C.3     1  UNL1        0.1214
     20 C         142.5753  145.1470  163.2312 C.3     1  UNL1        0.0390
     21 C         143.5723  144.0276  163.1763 C.ar    1  UNL1       -0.0216
     22 C         144.2223  143.5398  164.4372 C.ar    1  UNL1       -0.0043
     23 C         145.2193  142.4205  164.3823 C.ar    1  UNL1       -0.0003
     24 C         145.5663  141.7889  163.0667 C.ar    1  UNL1       -0.0000
     25 C         144.9163  142.2768  161.8060 C.ar    1  UNL1       -0.0003
     26 C         143.9193  143.3961  161.8608 C.ar    1  UNL1       -0.0043
@<TRIPOS>BOND
     1     1     2    1
     2     2     3    1
     3     3     4    1
     4     4     5   ar
     5     5     6   ar
     6     6     7   ar
     7     7     8   ar
     8     8     9   ar
     9     9    10    1
    10    10    13    1
    11    13    14   ar
    12    14    15   ar
    13    15    16   ar
    14    16    17   ar
    15    17    18   ar
    16    10    11    1
    17    11    12    2
    18    12    19    1
    19    19    20    1
    20    20    21    1
    21    21    22   ar
    22    22    23   ar
    23    23    24   ar
    24    24    25   ar
    25    25    26   ar
    26    12     2    1
    27    26    21   ar
    28     9     4   ar
    29    18    13   ar
@<TRIPOS>MOLECULE
*****
 26 29 0 0 0
SMALL
GASTEIGER

@<TRIPOS>ATOM
      1 C         143.4406  138.4946  162.2686 C.3     1  UNL1        0.2535
      2 N         142.8358  138.9137  163.5757 N.pl3   1  UNL1       -0.1867
      3 C         141.3986  138.5353  163.7789 C.3     1  UNL1        0.2292
      4 C         140.5187  138.8055  164.9634 C.ar    1  UNL1        0.0247
      5 C         139.1393  138.2530  164.7587 C.ar    1  UNL1       -0.0005
      6 C         138.0999  138.4159  165.8279 C.ar    1  UNL1       -0.0002
      7 C         138.4400  139.1313  167.1017 C.ar    1  UNL1       -0.0002
      8 C         139.8194  139.6838  167.3063 C.ar    1  UNL1        0.0000
      9 C         140.8588  139.5209  166.2372 C.ar    1  UNL1        0.0303
     10 C         142.1627  140.1427  166.6411 C.3     1  UNL1        0.2588
     11 N         143.4486  140.2029  165.8711 N.2     1  UNL1       -0.0649
     12 C         143.7481  139.6559  164.5068 C.2     1  UNL1        0.2958
     13 C         142.1835  140.7902  167.9940 C.ar    1  UNL1        0.0304
     14 C         142.5892  139.9953  169.1998 C.ar    1  UNL1        0.0002
     15 C         142.6100  140.6428  170.5526 C.ar    1  UNL1       -0.0002
     16 C         142.2250  142.0850  170.6999 C.ar    1  UNL1       -0.0000
     17 C         141.8193  142.8799  169.4942 C.ar    1  UNL1       -0.0002
     18 C         141.7985  142.2325  168.1413 C.ar    1  UNL1        0.0002
     19 C         145.1446  139.8808  164.0076 C.3     1  UNL1        0.1214
     20 C         145.7118  141.2687  163.9663 C.3     1  UNL1        0.0390
     21 C         144.8266  142.4310  163.6265 C.ar    1  UNL1       -0.0216
     22 C         144.2935  142.5854  162.2329 C.ar    1  UNL1       -0.0043
     23 C         143.4083  143.7477  161.8930 C.ar    1  UNL1       -0.0003
     24 C         143.0560  144.7555  162.9468 C.ar    1  UNL1       -0.0000
     25 C         143.5891  144.6010  164.3403 C.ar    1  UNL1       -0.0003
     26 C         144.4744  143.4387  164.6802 C.ar    1  UNL1       -0.0043
@<TRIPOS>BOND
     1     1     2    1
     2     2     3    1
     3     3     4    1
     4     4     5   ar
     5     5     6   ar
     6     6     7   ar
     7     7     8   ar
     8     8     9   ar
     9     9    10    1
    10    10    13    1
    11    13    14   ar
    12    14    15   ar
    13    15    16   ar
    14    16    17   ar
    15    17    18   ar
    16    10    11    1
    17    11    12    2
    18    12    19    1
    19    19    20    1
    20    20    21    1
    21    21    22   ar
    22    22    23   ar
    23    23    24   ar
    24    24    25   ar
    25    25    26   ar
    26    12     2    1
    27    26    21   ar
    28     9     4   ar
    29    18    13   ar
@<TRIPOS>MOLECULE
*****
 26 29 0 0 0
SMALL
GASTEIGER

@<TRIPOS>ATOM
      1 C         144.4890  142.4855  162.1046 C.3     1  UNL1        0.2535
      2 N         143.4135  142.5513  163.1481 N.pl3   1  UNL1       -0.1867
      3 C         142.2495  143.4414  162.8278 C.3     1  UNL1        0.2292
      4 C         141.0286  143.7184  163.6542 C.ar    1  UNL1        0.0247
      5 C         140.1029  144.6738  162.9611 C.ar    1  UNL1       -0.0005
      6 C         138.8190  145.0844  163.6190 C.ar    1  UNL1       -0.0002
      7 C         138.4607  144.5396  164.9699 C.ar    1  UNL1       -0.0002
      8 C         139.3864  143.5842  165.6629 C.ar    1  UNL1        0.0000
      9 C         140.6703  143.1736  165.0050 C.ar    1  UNL1        0.0303
     10 C         141.4445  142.2173  165.8631 C.3     1  UNL1        0.2588
     11 N         142.7679  141.5696  165.5824 N.2     1  UNL1       -0.0649
     12 C         143.6443  141.7183  164.3740 C.2     1  UNL1        0.2958
     13 C         140.8113  141.8617  167.1756 C.ar    1  UNL1        0.0304
     14 C         140.0763  140.5627  167.3263 C.ar    1  UNL1        0.0002
     15 C         139.4431  140.2072  168.6388 C.ar    1  UNL1       -0.0002
     16 C         139.5449  141.1504  169.8006 C.ar    1  UNL1       -0.0000
     17 C         140.2798  142.4494  169.6500 C.ar    1  UNL1       -0.0002
     18 C         140.9130  142.8050  168.3375 C.ar    1  UNL1        0.0002
     19 C         144.9200  140.9296  164.3943 C.3     1  UNL1        0.1214
     20 C         144.8758  139.4307  164.3573 C.3     1  UNL1        0.0390
     21 C         143.6010  138.7266  163.9982 C.ar    1  UNL1       -0.0216
     22 C         143.2326  138.5307  162.5573 C.ar    1  UNL1       -0.0043
     23 C         141.9578  137.8265  162.1982 C.ar    1  UNL1       -0.0003
     24 C         141.0513  137.3183  163.2800 C.ar    1  UNL1       -0.0000
     25 C         141.4197  137.5143  164.7207 C.ar    1  UNL1       -0.0003
     26 C         142.6945  138.2184  165.0799 C.ar    1  UNL1       -0.0043
@<TRIPOS>BOND
     1     1     2    1
     2     2     3    1
     3     3     4    1
     4     4     5   ar
     5     5     6   ar
     6     6     7   ar
     7     7     8   ar
     8     8     9   ar
     9     9    10    1
    10    10    13    1
    11    13    14   ar
    12    14    15   ar
    13    15    16   ar
    14    16    17   ar
    15    17    18   ar
    16    10    11    1
    17    11    12    2
    18    12    19    1
    19    19    20    1
    20    20    21    1
    21    21    22   ar
    22    22    23   ar
    23    23    24   ar
    24    24    25   ar
    25    25    26   ar
    26    12     2    1
    27    26    21   ar
    28     9     4   ar
    29    18    13   ar
@<TRIPOS>MOLECULE
*****
 26 29 0 0 0
SMALL
GASTEIGER

@<TRIPOS>ATOM
      1 C         138.1808  138.3687  162.5552 C.3     1  UNL1        0.2535
      2 N         138.6830  139.4286  163.4903 N.pl3   1  UNL1       -0.1867
      3 C         138.2845  140.8351  163.1543 C.3     1  UNL1        0.2292
      4 C         138.6218  142.1022  163.8827 C.ar    1  UNL1        0.0247
      5 C         138.0201  143.2991  163.2078 C.ar    1  UNL1       -0.0005
      6 C         138.2376  144.6695  163.7775 C.ar    1  UNL1       -0.0002
      7 C         139.0569  144.8431  165.0220 C.ar    1  UNL1       -0.0002
      8 C         139.6586  143.6462  165.6968 C.ar    1  UNL1        0.0000
      9 C         139.4410  142.2758  165.1271 C.ar    1  UNL1        0.0303
     10 C         140.1252  141.2251  165.9505 C.3     1  UNL1        0.2588
     11 N         140.1592  139.7414  165.7329 N.2     1  UNL1       -0.0649
     12 C         139.5173  138.9419  164.6379 C.2     1  UNL1        0.2958
     13 C         140.8746  141.7242  167.1503 C.ar    1  UNL1        0.0304
     14 C         142.3646  141.8861  167.0901 C.ar    1  UNL1        0.0002
     15 C         143.1139  142.3851  168.2899 C.ar    1  UNL1       -0.0002
     16 C         142.3732  142.7223  169.5498 C.ar    1  UNL1       -0.0000
     17 C         140.8832  142.5604  169.6101 C.ar    1  UNL1       -0.0002
     18 C         140.1339  142.0614  168.4104 C.ar    1  UNL1        0.0002
     19 C         139.7391  137.4596  164.6986 C.3     1  UNL1        0.1214
     20 C         141.1033  136.8940  164.4358 C.3     1  UNL1        0.0390
     21 C         142.2670  137.8143  164.2152 C.ar    1  UNL1       -0.0216
     22 C         143.0611  138.3133  165.3859 C.ar    1  UNL1       -0.0043
     23 C         144.2249  139.2336  165.1653 C.ar    1  UNL1       -0.0003
     24 C         144.5946  139.6549  163.7739 C.ar    1  UNL1       -0.0000
     25 C         143.8005  139.1560  162.6033 C.ar    1  UNL1       -0.0003
     26 C         142.6367  138.2357  162.8239 C.ar    1  UNL1       -0.0043
@<TRIPOS>BOND
     1     1     2    1
     2     2     3    1
     3     3     4    1
     4     4     5   ar
     5     5     6   ar
     6     6     7   ar
     7     7     8   ar
     8     8     9   ar
     9     9    10    1
    10    10    13    1
    11    13    14   ar
    12    14    15   ar
    13    15    16   ar
    14    16    17   ar
    15    17    18   ar
    16    10    11    1
    17    11    12    2
    18    12    19    1
    19    19    20    1
    20    20    21    1
    21    21    22   ar
    22    22    23   ar
    23    23    24   ar
    24    24    25   ar
    25    25    26   ar
    26    12     2    1
    27    26    21   ar
    28     9     4   ar
    29    18    13   ar
@<TRIPOS>MOLECULE
*****
 26 29 0 0 0
SMALL
GASTEIGER

@<TRIPOS>ATOM
      1 C         143.5779  137.9549  161.6892 C.3     1  UNL1        0.2535
      2 N         142.5272  138.7168  162.4412 N.pl3   1  UNL1       -0.1867
      3 C         141.5858  137.8880  163.2639 C.3     1  UNL1        0.2292
      4 C         140.4415  138.3444  164.1197 C.ar    1  UNL1        0.0247
      5 C         139.7521  137.1855  164.7766 C.ar    1  UNL1       -0.0005
      6 C         138.5772  137.4246  165.6779 C.ar    1  UNL1       -0.0002
      7 C         138.0916  138.8227  165.9222 C.ar    1  UNL1       -0.0002
      8 C         138.7810  139.9816  165.2652 C.ar    1  UNL1        0.0000
      9 C         139.9559  139.7425  164.3640 C.ar    1  UNL1        0.0303
     10 C         140.4947  141.0293  163.8129 C.3     1  UNL1        0.2588
     11 N         141.6521  141.2361  162.8814 N.2     1  UNL1       -0.0649
     12 C         142.5566  140.2069  162.2710 C.2     1  UNL1        0.2958
     13 C         139.7818  142.2742  164.2513 C.ar    1  UNL1        0.0304
     14 C         140.2683  143.0348  165.4492 C.ar    1  UNL1        0.0002
     15 C         139.5554  144.2796  165.8875 C.ar    1  UNL1       -0.0002
     16 C         138.3559  144.7638  165.1281 C.ar    1  UNL1       -0.0000
     17 C         137.8693  144.0032  163.9303 C.ar    1  UNL1       -0.0002
     18 C         138.5823  142.7584  163.4918 C.ar    1  UNL1        0.0002
     19 C         143.6330  140.7379  161.3713 C.3     1  UNL1        0.1214
     20 C         144.7815  141.5095  161.9504 C.3     1  UNL1        0.0390
     21 C         144.5228  142.6282  162.9157 C.ar    1  UNL1       -0.0216
     22 C         144.8025  142.4376  164.3770 C.ar    1  UNL1       -0.0043
     23 C         144.5438  143.5562  165.3423 C.ar    1  UNL1       -0.0003
     24 C         144.0054  144.8655  164.8462 C.ar    1  UNL1       -0.0000
     25 C         143.7257  145.0560  163.3849 C.ar    1  UNL1       -0.0003
     26 C         143.9844  143.9374  162.4196 C.ar    1  UNL1       -0.0043
@<TRIPOS>BOND
     1     1     2    1
     2     2     3    1
     3     3     4    1
     4     4     5   ar
     5     5     6   ar
     6     6     7   ar
     7     7     8   ar
     8     8     9   ar
     9     9    10    1
    10    10    13    1
    11    13    14   ar
    12    14    15   ar
    13    15    16   ar
    14    16    17   ar
    15    17    18   ar
    16    10    11    1
    17    11    12    2
    18    12    19    1
    19    19    20    1
    20    20    21    1
    21    21    22   ar
    22    22    23   ar
    23    23    24   ar
    24    24    25   ar
    25    25    26   ar
    26    12     2    1
    27    26    21   ar
    28     9     4   ar
    29    18    13   ar
@<TRIPOS>MOLECULE
*****
 26 29 0 0 0
SMALL
GASTEIGER

@<TRIPOS>ATOM
      1 C         140.0069  143.8526  161.6035 C.3     1  UNL1        0.2535
      2 N         140.0747  142.8254  162.6945 N.pl3   1  UNL1       -0.1867
      3 C         139.5601  141.4623  162.3379 C.3     1  UNL1        0.2292
      4 C         139.4918  140.2342  163.1965 C.ar    1  UNL1        0.0247
      5 C         138.9048  139.0743  162.4482 C.ar    1  UNL1       -0.0005
      6 C         138.7473  137.7461  163.1271 C.ar    1  UNL1       -0.0002
      7 C         139.1768  137.5778  164.5545 C.ar    1  UNL1       -0.0002
      8 C         139.7638  138.7377  165.3028 C.ar    1  UNL1        0.0000
      9 C         139.9213  140.0659  164.6238 C.ar    1  UNL1        0.0303
     10 C         140.5251  141.0842  165.5450 C.3     1  UNL1        0.2588
     11 N         140.8486  142.5221  165.2665 N.2     1  UNL1       -0.0649
     12 C         140.6482  143.2970  163.9978 C.2     1  UNL1        0.2958
     13 C         140.8482  140.6004  166.9276 C.ar    1  UNL1        0.0304
     14 C         139.8062  140.6583  168.0051 C.ar    1  UNL1        0.0002
     15 C         140.1293  140.1746  169.3877 C.ar    1  UNL1       -0.0002
     16 C         141.4943  139.6329  169.6929 C.ar    1  UNL1       -0.0000
     17 C         142.5364  139.5750  168.6154 C.ar    1  UNL1       -0.0002
     18 C         142.2133  140.0587  167.2328 C.ar    1  UNL1        0.0002
     19 C         141.0780  144.7336  164.0379 C.3     1  UNL1        0.1214
     20 C         142.5303  145.0857  163.9091 C.3     1  UNL1        0.0390
     21 C         143.5351  144.0192  163.5881 C.ar    1  UNL1       -0.0216
     22 C         144.2572  143.3113  164.6960 C.ar    1  UNL1       -0.0043
     23 C         145.2620  142.2448  164.3751 C.ar    1  UNL1       -0.0003
     24 C         145.5446  141.8862  162.9462 C.ar    1  UNL1       -0.0000
     25 C         144.8225  142.5941  161.8384 C.ar    1  UNL1       -0.0003
     26 C         143.8177  143.6606  162.1593 C.ar    1  UNL1       -0.0043
@<TRIPOS>BOND
     1     1     2    1
     2     2     3    1
     3     3     4    1
     4     4     5   ar
     5     5     6   ar
     6     6     7   ar
     7     7     8   ar
     8     8     9   ar
     9     9    10    1
    10    10    13    1
    11    13    14   ar
    12    14    15   ar
    13    15    16   ar
    14    16    17   ar
    15    17    18   ar
    16    10    11    1
    17    11    12    2
    18    12    19    1
    19    19    20    1
    20    20    21    1
    21    21    22   ar
    22    22    23   ar
    23    23    24   ar
    24    24    25   ar
    25    25    26   ar
    26    12     2    1
    27    26    21   ar
    28     9     4   ar
    29    18    13   ar
@<TRIPOS>MOLECULE
*****
 26 29 0 0 0
SMALL
GASTEIGER

@<TRIPOS>ATOM
      1 C         137.6011  138.7187  167.2652 C.3     1  UNL1        0.2535
      2 N         138.9331  139.3903  167.1087 N.pl3   1  UNL1       -0.1867
      3 C         139.4937  140.0212  168.3488 C.3     1  UNL1        0.2292
      4 C         140.7880  140.7599  168.5194 C.ar    1  UNL1        0.0247
      5 C         140.9673  141.2325  169.9316 C.ar    1  UNL1       -0.0005
      6 C         142.2002  141.9953  170.3163 C.ar    1  UNL1       -0.0002
      7 C         143.2538  142.2855  169.2888 C.ar    1  UNL1       -0.0002
      8 C         143.0745  141.8129  167.8766 C.ar    1  UNL1        0.0000
      9 C         141.8416  141.0500  167.4919 C.ar    1  UNL1        0.0303
     10 C         141.8610  140.6732  166.0401 C.3     1  UNL1        0.2588
     11 N         140.8317  139.9132  165.2572 N.2     1  UNL1       -0.0649
     12 C         139.5287  139.3423  165.7328 C.2     1  UNL1        0.2958
     13 C         143.0696  141.1149  165.2692 C.ar    1  UNL1        0.0304
     14 C         143.2429  142.5609  164.9098 C.ar    1  UNL1        0.0002
     15 C         144.4516  143.0025  164.1390 C.ar    1  UNL1       -0.0002
     16 C         145.4868  141.9982  163.7274 C.ar    1  UNL1       -0.0000
     17 C         145.3136  140.5522  164.0867 C.ar    1  UNL1       -0.0002
     18 C         144.1050  140.1105  164.8576 C.ar    1  UNL1        0.0002
     19 C         138.7133  138.6290  164.6953 C.3     1  UNL1        0.1214
     20 C         139.3153  137.4979  163.9156 C.3     1  UNL1        0.0390
     21 C         140.0854  137.7791  162.6594 C.ar    1  UNL1       -0.0216
     22 C         141.5780  137.6300  162.6454 C.ar    1  UNL1       -0.0043
     23 C         142.3480  137.9112  161.3893 C.ar    1  UNL1       -0.0003
     24 C         141.6256  138.3415  160.1471 C.ar    1  UNL1       -0.0000
     25 C         140.1331  138.4906  160.1611 C.ar    1  UNL1       -0.0003
     26 C         139.3630  138.2094  161.4173 C.ar    1  UNL1       -0.0043
@<TRIPOS>BOND
     1     1     2    1
     2     2     3    1
     3     3     4    1
     4     4     5   ar
     5     5     6   ar
     6     6     7   ar
     7     7     8   ar
     8     8     9   ar
     9     9    10    1
    10    10    13    1
    11    13    14   ar
    12    14    15   ar
    13    15    16   ar
    14    16    17   ar
    15    17    18   ar
    16    10    11    1
    17    11    12    2
    18    12    19    1
    19    19    20    1
    20    20    21    1
    21    21    22   ar
    22    22    23   ar
    23    23    24   ar
    24    24    25   ar
    25    25    26   ar
    26    12     2    1
    27    26    21   ar
    28     9     4   ar
    29    18    13   ar
@<TRIPOS>MOLECULE
*****
 26 29 0 0 0
SMALL
GASTEIGER

@<TRIPOS>ATOM
      1 C         139.1800  139.4792  161.8516 C.3     1  UNL1        0.2535
      2 N         139.6483  139.7343  163.2535 N.pl3   1  UNL1       -0.1867
      3 C         140.8850  138.9954  163.6713 C.3     1  UNL1        0.2292
      4 C         141.5969  139.0342  164.9910 C.ar    1  UNL1        0.0247
      5 C         142.8010  138.1399  164.9908 C.ar    1  UNL1       -0.0005
      6 C         143.6560  138.0328  166.2185 C.ar    1  UNL1       -0.0002
      7 C         143.3068  138.8202  167.4466 C.ar    1  UNL1       -0.0002
      8 C         142.1027  139.7146  167.4469 C.ar    1  UNL1        0.0000
      9 C         141.2477  139.8216  166.2191 C.ar    1  UNL1        0.0303
     10 C         140.1005  140.7646  166.4307 C.3     1  UNL1        0.2588
     11 N         139.0191  141.1531  165.4665 N.2     1  UNL1       -0.0649
     12 C         138.8179  140.6946  164.0525 C.2     1  UNL1        0.2958
     13 C         140.0247  141.4035  167.7857 C.ar    1  UNL1        0.0304
     14 C         139.4576  140.6388  168.9449 C.ar    1  UNL1        0.0002
     15 C         139.3818  141.2779  170.2998 C.ar    1  UNL1       -0.0002
     16 C         139.8730  142.6814  170.4956 C.ar    1  UNL1       -0.0000
     17 C         140.4401  143.4462  169.3365 C.ar    1  UNL1       -0.0002
     18 C         140.5159  142.8073  167.9815 C.ar    1  UNL1        0.0002
     19 C         137.6290  141.2727  163.3438 C.3     1  UNL1        0.1214
     20 C         137.4592  142.7604  163.2550 C.3     1  UNL1        0.0390
     21 C         138.4331  143.5805  162.4620 C.ar    1  UNL1       -0.0216
     22 C         138.9007  143.0995  161.1202 C.ar    1  UNL1       -0.0043
     23 C         139.8747  143.9195  160.3272 C.ar    1  UNL1       -0.0003
     24 C         140.3811  145.2205  160.8759 C.ar    1  UNL1       -0.0000
     25 C         139.9136  145.7014  162.2176 C.ar    1  UNL1       -0.0003
     26 C         138.9396  144.8814  163.0106 C.ar    1  UNL1       -0.0043
@<TRIPOS>BOND
     1     1     2    1
     2     2     3    1
     3     3     4    1
     4     4     5   ar
     5     5     6   ar
     6     6     7   ar
     7     7     8   ar
     8     8     9   ar
     9     9    10    1
    10    10    13    1
    11    13    14   ar
    12    14    15   ar
    13    15    16   ar
    14    16    17   ar
    15    17    18   ar
    16    10    11    1
    17    11    12    2
    18    12    19    1
    19    19    20    1
    20    20    21    1
    21    21    22   ar
    22    22    23   ar
    23    23    24   ar
    24    24    25   ar
    25    25    26   ar
    26    12     2    1
    27    26    21   ar
    28     9     4   ar
    29    18    13   ar
@<TRIPOS>MOLECULE
*****
 26 29 0 0 0
SMALL
GASTEIGER

@<TRIPOS>ATOM
      1 C         137.8279  137.8693  166.6242 C.3     1  UNL1        0.2535
      2 N         138.7642  139.0388  166.6973 N.pl3   1  UNL1       -0.1867
      3 C         138.8969  139.6832  168.0453 C.3     1  UNL1        0.2292
      4 C         139.7423  140.8572  168.4417 C.ar    1  UNL1        0.0247
      5 C         139.5815  141.1818  169.8972 C.ar    1  UNL1       -0.0005
      6 C         140.3422  142.3260  170.4990 C.ar    1  UNL1       -0.0002
      7 C         141.2637  143.1456  169.6451 C.ar    1  UNL1       -0.0002
      8 C         141.4245  142.8210  168.1896 C.ar    1  UNL1        0.0000
      9 C         140.6638  141.6768  167.5878 C.ar    1  UNL1        0.0303
     10 C         140.9675  141.5248  166.1268 C.3     1  UNL1        0.2588
     11 N         140.4248  140.5158  165.1587 N.2     1  UNL1       -0.0649
     12 C         139.4443  139.4094  165.4126 C.2     1  UNL1        0.2958
     13 C         141.9430  142.5126  165.5586 C.ar    1  UNL1        0.0304
     14 C         141.4568  143.6251  164.6776 C.ar    1  UNL1        0.0002
     15 C         142.4324  144.6128  164.1096 C.ar    1  UNL1       -0.0002
     16 C         143.8940  144.4882  164.4224 C.ar    1  UNL1       -0.0000
     17 C         144.3803  143.3757  165.3034 C.ar    1  UNL1       -0.0002
     18 C         143.4048  142.3879  165.8715 C.ar    1  UNL1        0.0002
     19 C         139.0979  138.5614  164.2248 C.3     1  UNL1        0.1214
     20 C         138.2955  139.1411  163.0978 C.3     1  UNL1        0.0390
     21 C         138.4624  140.5838  162.7228 C.ar    1  UNL1       -0.0216
     22 C         137.4956  141.6090  163.2370 C.ar    1  UNL1       -0.0043
     23 C         137.6625  143.0518  162.8621 C.ar    1  UNL1       -0.0003
     24 C         138.7962  143.4693  161.9730 C.ar    1  UNL1       -0.0000
     25 C         139.7629  142.4442  161.4588 C.ar    1  UNL1       -0.0003
     26 C         139.5960  141.0014  161.8338 C.ar    1  UNL1       -0.0043
@<TRIPOS>BOND
     1     1     2    1
     2     2     3    1
     3     3     4    1
     4     4     5   ar
     5     5     6   ar
     6     6     7   ar
     7     7     8   ar
     8     8     9   ar
     9     9    10    1
    10    10    13    1
    11    13    14   ar
    12    14    15   ar
    13    15    16   ar
    14    16    17   ar
    15    17    18   ar
    16    10    11    1
    17    11    12    2
    18    12    19    1
    19    19    20    1
    20    20    21    1
    21    21    22   ar
    22    22    23   ar
    23    23    24   ar
    24    24    25   ar
    25    25    26   ar
    26    12     2    1
    27    26    21   ar
    28     9     4   ar
    29    18    13   ar
