@<TRIPOS>MOLECULE
*****
 32 35 0 0 0
SMALL
GASTEIGER

@<TRIPOS>ATOM
      1 C         142.0380  138.0579  158.6950 C.ar    1  UNL1        0.0764
      2 C         142.6818  137.7154  160.0058 C.ar    1  UNL1        0.0176
      3 C         141.9488  137.9676  161.2899 C.ar    1  UNL1        0.0174
      4 C         140.5720  138.5624  161.2633 C.ar    1  UNL1        0.0676
      5 C         139.9282  138.9049  159.9525 C.ar    1  UNL1        0.0723
      6 N         140.6612  138.6527  158.6684 N.ar    1  UNL1       -0.2511
      7 C         138.5514  139.4997  159.9259 C.3     1  UNL1        0.0489
      8 C         137.8184  139.7519  161.2100 C.3     1  UNL1        0.0282
      9 C         138.4622  139.4093  162.5208 C.3     1  UNL1        0.0989
     10 N         139.8390  138.8146  162.5475 N.am    1  UNL1       -0.2540
     11 C         140.4827  138.4720  163.8583 C.2     1  UNL1        0.2528
     12 O         141.8595  137.8773  163.8849 O.2     1  UNL1       -0.2696
     13 C         139.7497  138.7243  165.1425 C.ar    1  UNL1        0.0547
     14 C         138.5309  137.9182  165.4812 C.ar    1  UNL1        0.0046
     15 C         137.7979  138.1705  166.7653 C.ar    1  UNL1        0.0010
     16 C         138.2838  139.2287  167.7108 C.ar    1  UNL1        0.0114
     17 C         139.5026  140.0348  167.3722 C.ar    1  UNL1        0.0578
     18 CL        139.9885  141.0931  168.3177 Cl      1  UNL1       -0.0822
     19 C         140.2356  139.7825  166.0880 C.ar    1  UNL1        0.0159
     20 C         142.8968  138.8991  156.3918 C.3     1  UNL1        0.0278
     21 C         142.7710  137.8057  157.4108 C.3     1  UNL1        0.1121
     22 N         143.3783  136.4600  157.1457 N.am    1  UNL1       -0.2973
     23 C         142.5970  135.4180  156.4016 C.2     1  UNL1        0.2461
     24 O         141.2083  135.7217  155.9226 O.2     1  UNL1       -0.2701
     25 H         144.2897  136.2606  157.4601 H       1  UNL1        0.1500
     26 C         143.2042  134.0722  156.1365 C.ar    1  UNL1        0.0535
     27 C         142.8428  133.3185  154.8910 C.ar    1  UNL1        0.0068
     28 C         143.4500  131.9728  154.6259 C.ar    1  UNL1        0.0298
     29 C         144.4187  131.3808  155.6063 C.ar    1  UNL1        0.1401
     30 F         145.0260  130.0351  155.3412 F       1  UNL1       -0.2042
     31 C         144.7802  132.1345  156.8518 C.ar    1  UNL1        0.0298
     32 C         144.1729  133.4803  157.1169 C.ar    1  UNL1        0.0068
@<TRIPOS>BOND
     1    21    20    1
     2    21    22    1
     3    22    23   am
     4    23    24    2
     5    23    26    1
     6    26    27   ar
     7    27    28   ar
     8    28    29   ar
     9    29    30    1
    10    29    31   ar
    11    31    32   ar
    12    21     1    1
    13     1     2   ar
    14     2     3   ar
    15     3     4   ar
    16     4     5   ar
    17     5     6   ar
    18     5     7    1
    19     7     8    1
    20     8     9    1
    21     9    10    1
    22    10    11   am
    23    11    12    2
    24    11    13    1
    25    13    14   ar
    26    14    15   ar
    27    15    16   ar
    28    16    17   ar
    29    17    18    1
    30    17    19   ar
    31    32    26   ar
    32     6     1   ar
    33    19    13   ar
    34    10     4    1
    35    22    25    1
@<TRIPOS>MOLECULE
*****
 32 35 0 0 0
SMALL
GASTEIGER

@<TRIPOS>ATOM
      1 C         138.6167  139.8130  164.7472 C.ar    1  UNL1        0.0764
      2 C         138.2881  141.2061  164.2988 C.ar    1  UNL1        0.0176
      3 C         138.3564  141.5611  162.8430 C.ar    1  UNL1        0.0174
      4 C         138.7535  140.5230  161.8357 C.ar    1  UNL1        0.0676
      5 C         139.0822  139.1299  162.2841 C.ar    1  UNL1        0.0723
      6 N         139.0138  138.7749  163.7398 N.ar    1  UNL1       -0.2511
      7 C         139.4792  138.0918  161.2768 C.3     1  UNL1        0.0489
      8 C         139.5476  138.4468  159.8210 C.3     1  UNL1        0.0282
      9 C         139.2189  139.8400  159.3726 C.3     1  UNL1        0.0989
     10 N         138.8219  140.8781  160.3799 N.am    1  UNL1       -0.2540
     11 C         138.4932  142.2713  159.9315 C.2     1  UNL1        0.2528
     12 O         138.0961  143.3093  160.9388 O.2     1  UNL1       -0.2696
     13 C         138.5616  142.6264  158.4757 C.ar    1  UNL1        0.0547
     14 C         139.8135  143.2268  157.9081 C.ar    1  UNL1        0.0046
     15 C         139.8818  143.5818  156.4524 C.ar    1  UNL1        0.0010
     16 C         138.6982  143.3365  155.5642 C.ar    1  UNL1        0.0114
     17 C         137.4463  142.7361  156.1317 C.ar    1  UNL1        0.0578
     18 CL        136.2627  142.4907  155.2435 Cl      1  UNL1       -0.0822
     19 C         137.3780  142.3810  157.5875 C.ar    1  UNL1        0.0159
     20 C         137.8020  138.2331  166.6420 C.3     1  UNL1        0.0278
     21 C         138.5484  139.4579  166.2030 C.3     1  UNL1        0.1121
     22 N         139.2264  140.3276  167.2197 N.am    1  UNL1       -0.2973
     23 C         140.7234  140.4154  167.2528 C.2     1  UNL1        0.2461
     24 O         141.5425  139.6335  166.2690 O.2     1  UNL1       -0.2701
     25 H         138.6888  140.8408  167.8654 H       1  UNL1        0.1500
     26 C         141.4015  141.2852  168.2695 C.ar    1  UNL1        0.0535
     27 C         140.6889  142.4811  168.8282 C.ar    1  UNL1        0.0068
     28 C         141.3669  143.3509  169.8449 C.ar    1  UNL1        0.0298
     29 C         142.7575  143.0247  170.3030 C.ar    1  UNL1        0.1401
     30 F         143.4356  143.8945  171.3198 F       1  UNL1       -0.2042
     31 C         143.4701  141.8288  169.7444 C.ar    1  UNL1        0.0298
     32 C         142.7920  140.9591  168.7276 C.ar    1  UNL1        0.0068
@<TRIPOS>BOND
     1    21    20    1
     2    21    22    1
     3    22    23   am
     4    23    24    2
     5    23    26    1
     6    26    27   ar
     7    27    28   ar
     8    28    29   ar
     9    29    30    1
    10    29    31   ar
    11    31    32   ar
    12    21     1    1
    13     1     2   ar
    14     2     3   ar
    15     3     4   ar
    16     4     5   ar
    17     5     6   ar
    18     5     7    1
    19     7     8    1
    20     8     9    1
    21     9    10    1
    22    10    11   am
    23    11    12    2
    24    11    13    1
    25    13    14   ar
    26    14    15   ar
    27    15    16   ar
    28    16    17   ar
    29    17    18    1
    30    17    19   ar
    31    32    26   ar
    32     6     1   ar
    33    19    13   ar
    34    10     4    1
    35    22    25    1
@<TRIPOS>MOLECULE
*****
 32 35 0 0 0
SMALL
GASTEIGER

@<TRIPOS>ATOM
      1 C         140.7142  144.2320  159.0085 C.ar    1  UNL1        0.0764
      2 C         141.0932  142.8268  159.3715 C.ar    1  UNL1        0.0176
      3 C         140.8498  142.3198  160.7620 C.ar    1  UNL1        0.0174
      4 C         140.2274  143.2179  161.7896 C.ar    1  UNL1        0.0676
      5 C         139.8484  144.6231  161.4267 C.ar    1  UNL1        0.0723
      6 N         140.0918  145.1301  160.0361 N.ar    1  UNL1       -0.2511
      7 C         139.2261  145.5213  162.4543 C.3     1  UNL1        0.0489
      8 C         138.9827  145.0143  163.8448 C.3     1  UNL1        0.0282
      9 C         139.3617  143.6090  164.2078 C.3     1  UNL1        0.0989
     10 N         139.9840  142.7108  163.1802 N.am    1  UNL1       -0.2540
     11 C         140.3630  141.3056  163.5431 C.2     1  UNL1        0.2528
     12 O         140.9853  140.4075  162.5155 O.2     1  UNL1       -0.2696
     13 C         140.1196  140.7985  164.9337 C.ar    1  UNL1        0.0547
     14 C         141.0368  141.2013  166.0502 C.ar    1  UNL1        0.0046
     15 C         140.7934  140.6942  167.4407 C.ar    1  UNL1        0.0010
     16 C         139.6328  139.7844  167.7148 C.ar    1  UNL1        0.0114
     17 C         138.7156  139.3816  166.5983 C.ar    1  UNL1        0.0578
     18 CL        137.5550  138.4718  166.8724 Cl      1  UNL1       -0.0822
     19 C         138.9590  139.8887  165.2078 C.ar    1  UNL1        0.0159
     20 C         141.5029  143.8169  156.5681 C.3     1  UNL1        0.0278
     21 C         140.9576  144.7391  157.6179 C.3     1  UNL1        0.1121
     22 N         140.6556  146.1683  157.2772 N.am    1  UNL1       -0.2973
     23 C         139.5092  146.4963  156.3672 C.2     1  UNL1        0.2461
     24 O         138.6647  145.3950  155.7978 O.2     1  UNL1       -0.2701
     25 H         141.2098  146.8911  157.6509 H       1  UNL1        0.1500
     26 C         139.2072  147.9256  156.0266 C.ar    1  UNL1        0.0535
     27 C         138.5256  148.8079  157.0301 C.ar    1  UNL1        0.0068
     28 C         138.2236  150.2371  156.6894 C.ar    1  UNL1        0.0298
     29 C         138.6032  150.7840  155.3452 C.ar    1  UNL1        0.1401
     30 F         138.3012  152.2133  155.0046 F       1  UNL1       -0.2042
     31 C         139.2848  149.9018  154.3418 C.ar    1  UNL1        0.0298
     32 C         139.5868  148.4725  154.6824 C.ar    1  UNL1        0.0068
@<TRIPOS>BOND
     1    21    20    1
     2    21    22    1
     3    22    23   am
     4    23    24    2
     5    23    26    1
     6    26    27   ar
     7    27    28   ar
     8    28    29   ar
     9    29    30    1
    10    29    31   ar
    11    31    32   ar
    12    21     1    1
    13     1     2   ar
    14     2     3   ar
    15     3     4   ar
    16     4     5   ar
    17     5     6   ar
    18     5     7    1
    19     7     8    1
    20     8     9    1
    21     9    10    1
    22    10    11   am
    23    11    12    2
    24    11    13    1
    25    13    14   ar
    26    14    15   ar
    27    15    16   ar
    28    16    17   ar
    29    17    18    1
    30    17    19   ar
    31    32    26   ar
    32     6     1   ar
    33    19    13   ar
    34    10     4    1
    35    22    25    1
@<TRIPOS>MOLECULE
*****
 32 35 0 0 0
SMALL
GASTEIGER

@<TRIPOS>ATOM
      1 C         137.6380  142.8492  156.3008 C.ar    1  UNL1        0.0764
      2 C         137.6275  142.1760  157.6411 C.ar    1  UNL1        0.0176
      3 C         138.6227  142.5766  158.6894 C.ar    1  UNL1        0.0174
      4 C         139.6284  143.6505  158.3974 C.ar    1  UNL1        0.0676
      5 C         139.6389  144.3237  157.0570 C.ar    1  UNL1        0.0723
      6 N         138.6438  143.9231  156.0087 N.ar    1  UNL1       -0.2511
      7 C         140.6447  145.3976  156.7650 C.3     1  UNL1        0.0489
      8 C         141.6399  145.7983  157.8133 C.3     1  UNL1        0.0282
      9 C         141.6294  145.1250  159.1538 C.3     1  UNL1        0.0989
     10 N         140.6236  144.0512  159.4458 N.am    1  UNL1       -0.2540
     11 C         140.6131  143.3779  160.7862 C.2     1  UNL1        0.2528
     12 O         139.6074  142.3041  161.0782 O.2     1  UNL1       -0.2696
     13 C         141.6083  143.7786  161.8346 C.ar    1  UNL1        0.0547
     14 C         141.3407  144.9693  162.7067 C.ar    1  UNL1        0.0046
     15 C         142.3359  145.3699  163.7550 C.ar    1  UNL1        0.0010
     16 C         143.5987  144.5798  163.9313 C.ar    1  UNL1        0.0114
     17 C         143.8663  143.3891  163.0592 C.ar    1  UNL1        0.0578
     18 CL        145.1291  142.5990  163.2354 Cl      1  UNL1       -0.0822
     19 C         142.8711  142.9885  162.0108 C.ar    1  UNL1        0.0159
     20 C         137.0574  142.3785  153.8125 C.3     1  UNL1        0.0278
     21 C         136.6428  142.4486  155.2524 C.3     1  UNL1        0.1121
     22 N         135.2330  142.1180  155.6439 N.am    1  UNL1       -0.2973
     23 C         134.8203  140.6871  155.8230 C.2     1  UNL1        0.2461
     24 O         135.8174  139.5867  155.6106 O.2     1  UNL1       -0.2701
     25 H         134.5786  142.8402  155.7833 H       1  UNL1        0.1500
     26 C         133.4106  140.3565  156.2145 C.ar    1  UNL1        0.0535
     27 C         133.1433  139.2500  157.1915 C.ar    1  UNL1        0.0068
     28 C         131.7336  138.9195  157.5830 C.ar    1  UNL1        0.0298
     29 C         130.5910  139.6953  156.9976 C.ar    1  UNL1        0.1401
     30 F         129.1813  139.3648  157.3891 F       1  UNL1       -0.2042
     31 C         130.8583  140.8017  156.0207 C.ar    1  UNL1        0.0298
     32 C         132.2680  141.1323  155.6291 C.ar    1  UNL1        0.0068
@<TRIPOS>BOND
     1    21    20    1
     2    21    22    1
     3    22    23   am
     4    23    24    2
     5    23    26    1
     6    26    27   ar
     7    27    28   ar
     8    28    29   ar
     9    29    30    1
    10    29    31   ar
    11    31    32   ar
    12    21     1    1
    13     1     2   ar
    14     2     3   ar
    15     3     4   ar
    16     4     5   ar
    17     5     6   ar
    18     5     7    1
    19     7     8    1
    20     8     9    1
    21     9    10    1
    22    10    11   am
    23    11    12    2
    24    11    13    1
    25    13    14   ar
    26    14    15   ar
    27    15    16   ar
    28    16    17   ar
    29    17    18    1
    30    17    19   ar
    31    32    26   ar
    32     6     1   ar
    33    19    13   ar
    34    10     4    1
    35    22    25    1
@<TRIPOS>MOLECULE
*****
 32 35 0 0 0
SMALL
GASTEIGER

@<TRIPOS>ATOM
      1 C         142.2382  139.2687  160.2447 C.ar    1  UNL1        0.0764
      2 C         143.1332  139.9591  161.2307 C.ar    1  UNL1        0.0176
      3 C         142.8257  139.8926  162.6973 C.ar    1  UNL1        0.0174
      4 C         141.6231  139.1357  163.1779 C.ar    1  UNL1        0.0676
      5 C         140.7281  138.4453  162.1919 C.ar    1  UNL1        0.0723
      6 N         141.0357  138.5118  160.7253 N.ar    1  UNL1       -0.2511
      7 C         139.5256  137.6884  162.6724 C.3     1  UNL1        0.0489
      8 C         139.2180  137.6219  164.1390 C.3     1  UNL1        0.0282
      9 C         140.1130  138.3123  165.1251 C.3     1  UNL1        0.0989
     10 N         141.3156  139.0692  164.6445 N.am    1  UNL1       -0.2540
     11 C         142.2106  139.7596  165.6306 C.2     1  UNL1        0.2528
     12 O         143.4132  140.5165  165.1500 O.2     1  UNL1       -0.2696
     13 C         141.9031  139.6931  167.0972 C.ar    1  UNL1        0.0547
     14 C         142.8936  139.0835  168.0444 C.ar    1  UNL1        0.0046
     15 C         142.5861  139.0170  169.5110 C.ar    1  UNL1        0.0010
     16 C         141.2880  139.5602  170.0304 C.ar    1  UNL1        0.0114
     17 C         140.2974  140.1699  169.0833 C.ar    1  UNL1        0.0578
     18 CL        138.9993  140.7130  169.6028 Cl      1  UNL1       -0.0822
     19 C         140.6050  140.2363  167.6167 C.ar    1  UNL1        0.0159
     20 C         142.4955  140.6512  158.0600 C.3     1  UNL1        0.0278
     21 C         142.5458  139.3351  158.7780 C.3     1  UNL1        0.1121
     22 N         142.9035  138.0855  158.0293 N.am    1  UNL1       -0.2973
     23 C         141.8445  137.3284  157.2843 C.2     1  UNL1        0.2461
     24 O         140.4276  137.8209  157.2879 O.2     1  UNL1       -0.2701
     25 H         143.8335  137.7623  158.0270 H       1  UNL1        0.1500
     26 C         142.2023  136.0788  156.5356 C.ar    1  UNL1        0.0535
     27 C         143.4364  135.3104  156.9053 C.ar    1  UNL1        0.0068
     28 C         143.7942  134.0608  156.1566 C.ar    1  UNL1        0.0298
     29 C         142.9179  133.5796  155.0383 C.ar    1  UNL1        0.1401
     30 F         143.2756  132.3300  154.2897 F       1  UNL1       -0.2042
     31 C         141.6838  134.3480  154.6687 C.ar    1  UNL1        0.0298
     32 C         141.3260  135.5976  155.4174 C.ar    1  UNL1        0.0068
@<TRIPOS>BOND
     1    21    20    1
     2    21    22    1
     3    22    23   am
     4    23    24    2
     5    23    26    1
     6    26    27   ar
     7    27    28   ar
     8    28    29   ar
     9    29    30    1
    10    29    31   ar
    11    31    32   ar
    12    21     1    1
    13     1     2   ar
    14     2     3   ar
    15     3     4   ar
    16     4     5   ar
    17     5     6   ar
    18     5     7    1
    19     7     8    1
    20     8     9    1
    21     9    10    1
    22    10    11   am
    23    11    12    2
    24    11    13    1
    25    13    14   ar
    26    14    15   ar
    27    15    16   ar
    28    16    17   ar
    29    17    18    1
    30    17    19   ar
    31    32    26   ar
    32     6     1   ar
    33    19    13   ar
    34    10     4    1
    35    22    25    1
@<TRIPOS>MOLECULE
*****
 32 35 0 0 0
SMALL
GASTEIGER

@<TRIPOS>ATOM
      1 C         142.4272  143.2856  160.6100 C.ar    1  UNL1        0.0764
      2 C         141.4535  142.2371  161.0599 C.ar    1  UNL1        0.0176
      3 C         141.4376  141.7939  162.4929 C.ar    1  UNL1        0.0174
      4 C         142.3954  142.3993  163.4758 C.ar    1  UNL1        0.0676
      5 C         143.3691  143.4477  163.0258 C.ar    1  UNL1        0.0723
      6 N         143.3850  143.8909  161.5929 N.ar    1  UNL1       -0.2511
      7 C         144.3269  144.0531  164.0088 C.3     1  UNL1        0.0489
      8 C         144.3110  143.6099  165.4417 C.3     1  UNL1        0.0282
      9 C         143.3373  142.5614  165.8917 C.3     1  UNL1        0.0989
     10 N         142.3795  141.9560  164.9088 N.am    1  UNL1       -0.2540
     11 C         141.4058  140.9075  165.3588 C.2     1  UNL1        0.2528
     12 O         140.4480  140.3022  164.3758 O.2     1  UNL1       -0.2696
     13 C         141.3899  140.4643  166.7918 C.ar    1  UNL1        0.0547
     14 C         142.5569  139.7100  167.3565 C.ar    1  UNL1        0.0046
     15 C         142.5409  139.2668  168.7894 C.ar    1  UNL1        0.0010
     16 C         141.3579  139.5780  169.6576 C.ar    1  UNL1        0.0114
     17 C         140.1909  140.3323  169.0928 C.ar    1  UNL1        0.0578
     18 CL        139.0079  140.6435  169.9610 Cl      1  UNL1       -0.0822
     19 C         140.2069  140.7755  167.6599 C.ar    1  UNL1        0.0159
     20 C         141.2164  144.3399  158.5673 C.3     1  UNL1        0.0278
     21 C         142.4431  143.7288  159.1770 C.3     1  UNL1        0.1121
     22 N         143.6857  143.5609  158.3538 N.am    1  UNL1       -0.2973
     23 C         143.9789  142.2439  157.6983 C.2     1  UNL1        0.2461
     24 O         143.0294  141.0948  157.8660 O.2     1  UNL1       -0.2701
     25 H         144.3089  144.3150  158.2437 H       1  UNL1        0.1500
     26 C         145.2215  142.0760  156.8751 C.ar    1  UNL1        0.0535
     27 C         146.5169  142.6709  157.3425 C.ar    1  UNL1        0.0068
     28 C         147.7595  142.5029  156.5193 C.ar    1  UNL1        0.0298
     29 C         147.7068  141.7402  155.2287 C.ar    1  UNL1        0.1401
     30 F         148.9494  141.5723  154.4055 F       1  UNL1       -0.2042
     31 C         146.4115  141.1454  154.7614 C.ar    1  UNL1        0.0298
     32 C         145.1689  141.3133  155.5846 C.ar    1  UNL1        0.0068
@<TRIPOS>BOND
     1    21    20    1
     2    21    22    1
     3    22    23   am
     4    23    24    2
     5    23    26    1
     6    26    27   ar
     7    27    28   ar
     8    28    29   ar
     9    29    30    1
    10    29    31   ar
    11    31    32   ar
    12    21     1    1
    13     1     2   ar
    14     2     3   ar
    15     3     4   ar
    16     4     5   ar
    17     5     6   ar
    18     5     7    1
    19     7     8    1
    20     8     9    1
    21     9    10    1
    22    10    11   am
    23    11    12    2
    24    11    13    1
    25    13    14   ar
    26    14    15   ar
    27    15    16   ar
    28    16    17   ar
    29    17    18    1
    30    17    19   ar
    31    32    26   ar
    32     6     1   ar
    33    19    13   ar
    34    10     4    1
    35    22    25    1
@<TRIPOS>MOLECULE
*****
 32 35 0 0 0
SMALL
GASTEIGER

@<TRIPOS>ATOM
      1 C         142.6533  139.5068  160.2053 C.ar    1  UNL1        0.0764
      2 C         142.8398  140.9128  160.6935 C.ar    1  UNL1        0.0176
      3 C         142.6296  141.2376  162.1427 C.ar    1  UNL1        0.0174
      4 C         142.2328  140.1564  163.1038 C.ar    1  UNL1        0.0676
      5 C         142.0463  138.7504  162.6156 C.ar    1  UNL1        0.0723
      6 N         142.2565  138.4256  161.1664 N.ar    1  UNL1       -0.2511
      7 C         141.6495  137.6692  163.5766 C.3     1  UNL1        0.0489
      8 C         141.4393  137.9940  165.0258 C.3     1  UNL1        0.0282
      9 C         141.6258  139.4000  165.5141 C.3     1  UNL1        0.0989
     10 N         142.0226  140.4812  164.5531 N.am    1  UNL1       -0.2540
     11 C         142.2091  141.8872  165.0413 C.2     1  UNL1        0.2528
     12 O         142.6059  142.9684  164.0802 O.2     1  UNL1       -0.2696
     13 C         141.9989  142.2120  166.4905 C.ar    1  UNL1        0.0547
     14 C         140.6395  142.6160  166.9791 C.ar    1  UNL1        0.0046
     15 C         140.4293  142.9408  168.4283 C.ar    1  UNL1        0.0010
     16 C         141.5786  142.8617  169.3890 C.ar    1  UNL1        0.0114
     17 C         142.9380  142.4577  168.9004 C.ar    1  UNL1        0.0578
     18 CL        144.0873  142.3786  169.8611 Cl      1  UNL1       -0.0822
     19 C         143.1482  142.1329  167.4512 C.ar    1  UNL1        0.0159
     20 C         141.8378  138.3806  158.0106 C.3     1  UNL1        0.0278
     21 C         142.8635  139.1819  158.7561 C.3     1  UNL1        0.1121
     22 N         144.0995  139.6585  158.0523 N.am    1  UNL1       -0.2973
     23 C         144.0358  140.8582  157.1542 C.2     1  UNL1        0.2461
     24 O         142.7360  141.5815  156.9599 O.2     1  UNL1       -0.2701
     25 H         144.9525  139.1838  158.1798 H       1  UNL1        0.1500
     26 C         145.2717  141.3347  156.4505 C.ar    1  UNL1        0.0535
     27 C         145.5523  140.8921  155.0449 C.ar    1  UNL1        0.0068
     28 C         146.7882  141.3686  154.3412 C.ar    1  UNL1        0.0298
     29 C         147.7437  142.2878  155.0429 C.ar    1  UNL1        0.1401
     30 F         148.9796  142.7643  154.3391 F       1  UNL1       -0.2042
     31 C         147.4631  142.7304  156.4484 C.ar    1  UNL1        0.0298
     32 C         146.2271  142.2539  157.1521 C.ar    1  UNL1        0.0068
@<TRIPOS>BOND
     1    21    20    1
     2    21    22    1
     3    22    23   am
     4    23    24    2
     5    23    26    1
     6    26    27   ar
     7    27    28   ar
     8    28    29   ar
     9    29    30    1
    10    29    31   ar
    11    31    32   ar
    12    21     1    1
    13     1     2   ar
    14     2     3   ar
    15     3     4   ar
    16     4     5   ar
    17     5     6   ar
    18     5     7    1
    19     7     8    1
    20     8     9    1
    21     9    10    1
    22    10    11   am
    23    11    12    2
    24    11    13    1
    25    13    14   ar
    26    14    15   ar
    27    15    16   ar
    28    16    17   ar
    29    17    18    1
    30    17    19   ar
    31    32    26   ar
    32     6     1   ar
    33    19    13   ar
    34    10     4    1
    35    22    25    1
@<TRIPOS>MOLECULE
*****
 32 35 0 0 0
SMALL
GASTEIGER

@<TRIPOS>ATOM
      1 C         142.5295  139.8723  159.9919 C.ar    1  UNL1        0.0764
      2 C         141.2199  140.4096  160.4880 C.ar    1  UNL1        0.0176
      3 C         140.9716  140.5375  161.9617 C.ar    1  UNL1        0.0174
      4 C         142.0330  140.1281  162.9394 C.ar    1  UNL1        0.0676
      5 C         143.3426  139.5908  162.4433 C.ar    1  UNL1        0.0723
      6 N         143.5909  139.4629  160.9696 N.ar    1  UNL1       -0.2511
      7 C         144.4040  139.1814  163.4210 C.3     1  UNL1        0.0489
      8 C         144.1558  139.3093  164.8948 C.3     1  UNL1        0.0282
      9 C         142.8461  139.8466  165.3909 C.3     1  UNL1        0.0989
     10 N         141.7847  140.2560  164.4132 N.am    1  UNL1       -0.2540
     11 C         140.4750  140.7933  164.9093 C.2     1  UNL1        0.2528
     12 O         139.4137  141.2027  163.9316 O.2     1  UNL1       -0.2696
     13 C         140.2267  140.9212  166.3831 C.ar    1  UNL1        0.0547
     14 C         139.5587  139.8055  167.1307 C.ar    1  UNL1        0.0046
     15 C         139.3104  139.9334  168.6044 C.ar    1  UNL1        0.0010
     16 C         139.7301  141.1771  169.3305 C.ar    1  UNL1        0.0114
     17 C         140.3982  142.2927  168.5829 C.ar    1  UNL1        0.0578
     18 CL        140.8179  143.5363  169.3091 Cl      1  UNL1       -0.0822
     19 C         140.6464  142.1648  167.1092 C.ar    1  UNL1        0.0159
     20 C         142.5765  140.9274  157.6182 C.3     1  UNL1        0.0278
     21 C         142.7778  139.7444  158.5181 C.3     1  UNL1        0.1121
     22 N         143.2275  138.4335  157.9443 N.am    1  UNL1       -0.2973
     23 C         142.2219  137.4858  157.3608 C.2     1  UNL1        0.2461
     24 O         140.7665  137.8490  157.3510 O.2     1  UNL1       -0.2701
     25 H         144.1827  138.1951  157.9507 H       1  UNL1        0.1500
     26 C         142.6715  136.1749  156.7870 C.ar    1  UNL1        0.0535
     27 C         142.5427  135.9168  155.3149 C.ar    1  UNL1        0.0068
     28 C         142.9923  134.6059  154.7411 C.ar    1  UNL1        0.0298
     29 C         143.5708  133.5530  155.6394 C.ar    1  UNL1        0.1401
     30 F         144.0205  132.2420  155.0656 F       1  UNL1       -0.2042
     31 C         143.6996  133.8110  157.1114 C.ar    1  UNL1        0.0298
     32 C         143.2499  135.1220  157.6852 C.ar    1  UNL1        0.0068
@<TRIPOS>BOND
     1    21    20    1
     2    21    22    1
     3    22    23   am
     4    23    24    2
     5    23    26    1
     6    26    27   ar
     7    27    28   ar
     8    28    29   ar
     9    29    30    1
    10    29    31   ar
    11    31    32   ar
    12    21     1    1
    13     1     2   ar
    14     2     3   ar
    15     3     4   ar
    16     4     5   ar
    17     5     6   ar
    18     5     7    1
    19     7     8    1
    20     8     9    1
    21     9    10    1
    22    10    11   am
    23    11    12    2
    24    11    13    1
    25    13    14   ar
    26    14    15   ar
    27    15    16   ar
    28    16    17   ar
    29    17    18    1
    30    17    19   ar
    31    32    26   ar
    32     6     1   ar
    33    19    13   ar
    34    10     4    1
    35    22    25    1
@<TRIPOS>MOLECULE
*****
 32 35 0 0 0
SMALL
GASTEIGER

@<TRIPOS>ATOM
      1 C         142.1282  139.6972  160.6272 C.ar    1  UNL1        0.0764
      2 C         140.8586  140.3104  161.1390 C.ar    1  UNL1        0.0176
      3 C         140.6683  140.5216  162.6118 C.ar    1  UNL1        0.0174
      4 C         141.7476  140.1195  163.5727 C.ar    1  UNL1        0.0676
      5 C         143.0173  139.5063  163.0609 C.ar    1  UNL1        0.0723
      6 N         143.2075  139.2952  161.5881 N.ar    1  UNL1       -0.2511
      7 C         144.0966  139.1043  164.0219 C.3     1  UNL1        0.0489
      8 C         143.9063  139.3155  165.4946 C.3     1  UNL1        0.0282
      9 C         142.6366  139.9287  166.0066 C.3     1  UNL1        0.0989
     10 N         141.5573  140.3307  165.0456 N.am    1  UNL1       -0.2540
     11 C         140.2877  140.9440  165.5574 C.2     1  UNL1        0.2528
     12 O         139.2084  141.3460  164.5965 O.2     1  UNL1       -0.2696
     13 C         140.0974  141.1552  167.0303 C.ar    1  UNL1        0.0547
     14 C         139.4848  140.0738  167.8701 C.ar    1  UNL1        0.0046
     15 C         139.2945  140.2850  169.3428 C.ar    1  UNL1        0.0010
     16 C         139.7168  141.5777  169.9759 C.ar    1  UNL1        0.0114
     17 C         140.3293  142.6591  169.1361 C.ar    1  UNL1        0.0578
     18 CL        140.7516  143.9517  169.7691 Cl      1  UNL1       -0.0822
     19 C         140.5196  142.4478  167.6633 C.ar    1  UNL1        0.0159
     20 C         141.1995  138.9279  158.3259 C.3     1  UNL1        0.0278
     21 C         142.3185  139.4860  159.1543 C.3     1  UNL1        0.1121
     22 N         143.6279  139.8328  158.5100 N.am    1  UNL1       -0.2973
     23 C         143.7472  141.0723  157.6737 C.2     1  UNL1        0.2461
     24 O         142.5571  141.9650  157.4817 O.2     1  UNL1       -0.2701
     25 H         144.4090  139.2470  158.6359 H       1  UNL1        0.1500
     26 C         145.0566  141.4192  157.0293 C.ar    1  UNL1        0.0535
     27 C         145.4703  140.7391  155.7579 C.ar    1  UNL1        0.0068
     28 C         146.7797  141.0859  155.1136 C.ar    1  UNL1        0.0298
     29 C         147.6754  142.1129  155.7406 C.ar    1  UNL1        0.1401
     30 F         148.9848  142.4598  155.0963 F       1  UNL1       -0.2042
     31 C         147.2617  142.7930  157.0120 C.ar    1  UNL1        0.0298
     32 C         145.9523  142.4461  157.6563 C.ar    1  UNL1        0.0068
@<TRIPOS>BOND
     1    21    20    1
     2    21    22    1
     3    22    23   am
     4    23    24    2
     5    23    26    1
     6    26    27   ar
     7    27    28   ar
     8    28    29   ar
     9    29    30    1
    10    29    31   ar
    11    31    32   ar
    12    21     1    1
    13     1     2   ar
    14     2     3   ar
    15     3     4   ar
    16     4     5   ar
    17     5     6   ar
    18     5     7    1
    19     7     8    1
    20     8     9    1
    21     9    10    1
    22    10    11   am
    23    11    12    2
    24    11    13    1
    25    13    14   ar
    26    14    15   ar
    27    15    16   ar
    28    16    17   ar
    29    17    18    1
    30    17    19   ar
    31    32    26   ar
    32     6     1   ar
    33    19    13   ar
    34    10     4    1
    35    22    25    1
