@<TRIPOS>MOLECULE
*****
 41 44 0 0 0
SMALL
GASTEIGER

@<TRIPOS>ATOM
      1 C         142.2773  144.2425  161.5876 C.3     1  UNL1        0.0781
      2 C         142.6723  142.9415  160.9540 C.3     1  UNL1        0.0372
      3 C         143.7957  142.1350  161.5349 C.3     1  UNL1        0.0738
      4 N         144.5241  142.6293  162.7494 N.3     1  UNL1       -0.2726
      5 C         144.1291  143.9304  163.3830 C.3     1  UNL1        0.0738
      6 C         143.0057  144.7370  162.8021 C.3     1  UNL1        0.0372
      7 N         141.1539  145.0491  161.0066 N.am    1  UNL1       -0.2808
      8 C         140.0839  145.5990  161.9027 C.2     1  UNL1        0.2300
      9 O         138.9606  146.4056  161.3218 O.2     1  UNL1       -0.2745
     10 C         140.1980  144.4841  158.6579 C.3     1  UNL1        0.0233
     11 C         141.1005  145.3058  159.5298 C.3     1  UNL1        0.0934
     12 C         140.1374  145.3422  163.3796 C.3     1  UNL1        0.1116
     13 C         139.7301  144.0050  163.9236 C.ar    1  UNL1       -0.0130
     14 C         138.7809  143.1382  163.1505 C.ar    1  UNL1       -0.0025
     15 C         138.3737  141.8011  163.6945 C.ar    1  UNL1        0.0180
     16 C         138.9156  141.3306  165.0117 C.ar    1  UNL1        0.1057
     17 C         139.8648  142.1973  165.7848 C.ar    1  UNL1        0.0180
     18 C         140.2721  143.5345  165.2408 C.ar    1  UNL1       -0.0025
     19 S         138.5084  139.9933  165.5557 S.O2    1  UNL1        0.0104
     20 C         138.1011  138.6561  166.0997 C.3     1  UNL1        0.1816
     21 O         137.8485  139.6630  164.2498 O.2     1  UNL1       -0.1686
     22 O         139.1682  140.3236  166.8617 O.2     1  UNL1       -0.1686
     23 C         145.6474  141.8228  163.3303 C.3     1  UNL1        0.0724
     24 C         145.3634  140.5023  163.9827 C.3     1  UNL1        0.0217
     25 C         143.9572  140.1369  164.3554 C.3     1  UNL1        0.0238
     26 C         143.0596  139.4835  163.3468 C.ar    1  UNL1       -0.0225
     27 C         143.6098  138.4450  162.4146 C.ar    1  UNL1       -0.0043
     28 C         142.7122  137.7915  161.4059 C.ar    1  UNL1       -0.0003
     29 C         141.2645  138.1765  161.3294 C.ar    1  UNL1       -0.0000
     30 C         140.7143  139.2150  162.2616 C.ar    1  UNL1       -0.0003
     31 C         141.6118  139.8685  163.2702 C.ar    1  UNL1       -0.0043
     32 C         143.4484  140.4250  165.7367 C.3     1  UNL1        0.0070
     33 C         142.9646  139.3031  166.6070 C.3     1  UNL1        0.0195
     34 C         142.4558  139.5912  167.9883 C.3     1  UNL1        0.0954
     35 N         142.4309  141.0012  168.4995 N.3     1  UNL1       -0.1594
     36 C         142.9147  142.1231  167.6293 C.3     1  UNL1        0.0954
     37 C         143.4235  141.8350  166.2479 C.3     1  UNL1        0.0195
     38 S         141.9221  141.2892  169.8808 S.O2    1  UNL1        0.0457
     39 C         141.4133  141.5773  171.2622 C.3     1  UNL1        0.1960
     40 O         142.7280  142.5539  169.9139 O.2     1  UNL1       -0.1572
     41 O         141.1162  140.0246  169.8478 O.2     1  UNL1       -0.1572
@<TRIPOS>BOND
     1    10    11    1
     2    11     7    1
     3     7     8   am
     4     8     9    2
     5     8    12    1
     6    12    13    1
     7    13    14   ar
     8    14    15   ar
     9    15    16   ar
    10    16    19    1
    11    19    20    1
    12    19    21    2
    13    19    22    2
    14    16    17   ar
    15    17    18   ar
    16     7     1    1
    17     1     2    1
    18     2     3    1
    19     3     4    1
    20     4    23    1
    21    23    24    1
    22    25    24    1
    23    25    26    1
    24    26    27   ar
    25    27    28   ar
    26    28    29   ar
    27    29    30   ar
    28    30    31   ar
    29    25    32    1
    30    32    33    1
    31    33    34    1
    32    34    35    1
    33    35    38    1
    34    38    39    1
    35    38    40    2
    36    38    41    2
    37    35    36    1
    38    36    37    1
    39     4     5    1
    40     5     6    1
    41    18    13   ar
    42     6     1    1
    43    31    26   ar
    44    37    32    1
@<TRIPOS>MOLECULE
*****
 41 44 0 0 0
SMALL
GASTEIGER

@<TRIPOS>ATOM
      1 C         140.7415  138.2580  161.2566 C.3     1  UNL1        0.0781
      2 C         139.3917  138.8864  161.4381 C.3     1  UNL1        0.0372
      3 C         138.6749  138.7583  162.7495 C.3     1  UNL1        0.0738
      4 N         139.3080  138.0018  163.8795 N.3     1  UNL1       -0.2726
      5 C         140.6580  137.3734  163.6981 C.3     1  UNL1        0.0738
      6 C         141.3747  137.5015  162.3866 C.3     1  UNL1        0.0372
      7 N         141.4583  138.3861  159.9452 N.am    1  UNL1       -0.2808
      8 C         142.9381  138.6306  159.9200 C.2     1  UNL1        0.2300
      9 O         143.6549  138.7587  158.6086 O.2     1  UNL1       -0.2745
     10 C         140.2796  139.5066  157.9192 C.3     1  UNL1        0.0233
     11 C         140.6954  138.2698  158.6590 C.3     1  UNL1        0.0934
     12 C         143.7010  138.7469  161.2062 C.3     1  UNL1        0.1116
     13 C         143.7922  140.0700  161.9071 C.ar    1  UNL1       -0.0130
     14 C         143.9085  141.3349  161.1094 C.ar    1  UNL1       -0.0025
     15 C         143.9997  142.6579  161.8103 C.ar    1  UNL1        0.0180
     16 C         143.9746  142.7160  163.3090 C.ar    1  UNL1        0.1057
     17 C         143.8583  141.4511  164.1067 C.ar    1  UNL1        0.0180
     18 C         143.7671  140.1281  163.4058 C.ar    1  UNL1       -0.0025
     19 S         144.0657  144.0391  164.0099 S.O2    1  UNL1        0.0104
     20 C         144.1569  145.3620  164.7109 C.3     1  UNL1        0.1816
     21 O         143.9682  143.3436  165.3353 O.2     1  UNL1       -0.1686
     22 O         144.1632  144.7346  162.6845 O.2     1  UNL1       -0.1686
     23 C         138.5912  137.8737  165.1909 C.3     1  UNL1        0.0724
     24 C         138.2365  139.1023  165.9748 C.3     1  UNL1        0.0217
     25 C         139.2697  140.1626  166.2158 C.3     1  UNL1        0.0238
     26 C         140.2696  139.9980  167.3217 C.ar    1  UNL1       -0.0225
     27 C         141.6823  139.6070  167.0036 C.ar    1  UNL1       -0.0043
     28 C         142.6822  139.4423  168.1096 C.ar    1  UNL1       -0.0003
     29 C         142.2693  139.6686  169.5337 C.ar    1  UNL1       -0.0000
     30 C         140.8565  140.0596  169.8519 C.ar    1  UNL1       -0.0003
     31 C         139.8567  140.2243  168.7460 C.ar    1  UNL1       -0.0043
     32 C         139.3032  141.3876  165.3508 C.3     1  UNL1        0.0070
     33 C         138.1507  141.6953  164.4414 C.3     1  UNL1        0.0195
     34 C         138.1841  142.9203  163.5764 C.3     1  UNL1        0.0954
     35 N         139.3701  143.8376  163.6208 N.3     1  UNL1       -0.1594
     36 C         140.5226  143.5300  164.5301 C.3     1  UNL1        0.0954
     37 C         140.4892  142.3050  165.3952 C.3     1  UNL1        0.0195
     38 S         139.4035  145.0626  162.7558 S.O2    1  UNL1        0.0457
     39 C         139.4371  146.2877  161.8908 C.3     1  UNL1        0.1960
     40 O         137.9487  144.8794  162.4400 O.2     1  UNL1       -0.1572
     41 O         140.8584  145.2459  163.0715 O.2     1  UNL1       -0.1572
@<TRIPOS>BOND
     1    10    11    1
     2    11     7    1
     3     7     8   am
     4     8     9    2
     5     8    12    1
     6    12    13    1
     7    13    14   ar
     8    14    15   ar
     9    15    16   ar
    10    16    19    1
    11    19    20    1
    12    19    21    2
    13    19    22    2
    14    16    17   ar
    15    17    18   ar
    16     7     1    1
    17     1     2    1
    18     2     3    1
    19     3     4    1
    20     4    23    1
    21    23    24    1
    22    25    24    1
    23    25    26    1
    24    26    27   ar
    25    27    28   ar
    26    28    29   ar
    27    29    30   ar
    28    30    31   ar
    29    25    32    1
    30    32    33    1
    31    33    34    1
    32    34    35    1
    33    35    38    1
    34    38    39    1
    35    38    40    2
    36    38    41    2
    37    35    36    1
    38    36    37    1
    39     4     5    1
    40     5     6    1
    41    18    13   ar
    42     6     1    1
    43    31    26   ar
    44    37    32    1
@<TRIPOS>MOLECULE
*****
 41 44 0 0 0
SMALL
GASTEIGER

@<TRIPOS>ATOM
      1 C         142.6920  139.3201  159.7366 C.3     1  UNL1        0.0781
      2 C         143.0325  138.8226  161.1101 C.3     1  UNL1        0.0372
      3 C         143.8300  139.6844  162.0436 C.3     1  UNL1        0.0738
      4 N         144.2871  141.0436  161.6035 N.3     1  UNL1       -0.2726
      5 C         143.9466  141.5411  160.2300 C.3     1  UNL1        0.0738
      6 C         143.1491  140.6793  159.2965 C.3     1  UNL1        0.0372
      7 N         141.8945  138.4583  158.8031 N.am    1  UNL1       -0.2808
      8 C         140.4208  138.6889  158.6441 C.2     1  UNL1        0.2300
      9 O         139.6233  137.8272  157.7107 O.2     1  UNL1       -0.2745
     10 C         142.9860  137.6015  156.6067 C.3     1  UNL1        0.0233
     11 C         142.5706  137.3661  158.0287 C.3     1  UNL1        0.0934
     12 C         139.7448  139.7812  159.4186 C.3     1  UNL1        0.1116
     13 C         139.4340  139.5874  160.8732 C.ar    1  UNL1       -0.0130
     14 C         139.3663  140.7727  161.7900 C.ar    1  UNL1       -0.0025
     15 C         139.0555  140.5789  163.2446 C.ar    1  UNL1        0.0180
     16 C         138.8124  139.1998  163.7824 C.ar    1  UNL1        0.1057
     17 C         138.8801  138.0146  162.8655 C.ar    1  UNL1        0.0180
     18 C         139.1909  138.2084  161.4110 C.ar    1  UNL1       -0.0025
     19 S         138.5016  139.0061  165.2370 S.O2    1  UNL1        0.0104
     20 C         138.1908  138.8124  166.6916 C.3     1  UNL1        0.1816
     21 O         138.2852  140.4827  165.3874 O.2     1  UNL1       -0.1686
     22 O         138.7180  137.5294  165.0866 O.2     1  UNL1       -0.1686
     23 C         145.0846  141.9053  162.5370 C.3     1  UNL1        0.0724
     24 C         144.4802  143.1552  163.1047 C.3     1  UNL1        0.0217
     25 C         143.1361  143.1038  163.7686 C.3     1  UNL1        0.0238
     26 C         141.9799  143.8571  163.1807 C.ar    1  UNL1       -0.0225
     27 C         142.0224  144.2972  161.7474 C.ar    1  UNL1       -0.0043
     28 C         140.8661  145.0505  161.1595 C.ar    1  UNL1       -0.0003
     29 C         139.6673  145.3637  162.0050 C.ar    1  UNL1       -0.0000
     30 C         139.6248  144.9237  163.4383 C.ar    1  UNL1       -0.0003
     31 C         140.7811  144.1704  164.0262 C.ar    1  UNL1       -0.0043
     32 C         142.9482  142.2991  165.0204 C.3     1  UNL1        0.0070
     33 C         142.2580  140.9687  164.9603 C.3     1  UNL1        0.0195
     34 C         142.0701  140.1640  166.2121 C.3     1  UNL1        0.0954
     35 N         142.5725  140.6896  167.5241 N.3     1  UNL1       -0.1594
     36 C         143.2627  142.0200  167.5843 C.3     1  UNL1        0.0954
     37 C         143.4506  142.8248  166.3324 C.3     1  UNL1        0.0195
     38 S         142.3846  139.8849  168.7759 S.O2    1  UNL1        0.0457
     39 C         142.1968  139.0801  170.0278 C.3     1  UNL1        0.1960
     40 O         141.5826  141.0025  169.3740 O.2     1  UNL1       -0.1572
     41 O         143.1867  138.7673  168.1779 O.2     1  UNL1       -0.1572
@<TRIPOS>BOND
     1    10    11    1
     2    11     7    1
     3     7     8   am
     4     8     9    2
     5     8    12    1
     6    12    13    1
     7    13    14   ar
     8    14    15   ar
     9    15    16   ar
    10    16    19    1
    11    19    20    1
    12    19    21    2
    13    19    22    2
    14    16    17   ar
    15    17    18   ar
    16     7     1    1
    17     1     2    1
    18     2     3    1
    19     3     4    1
    20     4    23    1
    21    23    24    1
    22    25    24    1
    23    25    26    1
    24    26    27   ar
    25    27    28   ar
    26    28    29   ar
    27    29    30   ar
    28    30    31   ar
    29    25    32    1
    30    32    33    1
    31    33    34    1
    32    34    35    1
    33    35    38    1
    34    38    39    1
    35    38    40    2
    36    38    41    2
    37    35    36    1
    38    36    37    1
    39     4     5    1
    40     5     6    1
    41    18    13   ar
    42     6     1    1
    43    31    26   ar
    44    37    32    1
@<TRIPOS>MOLECULE
*****
 41 44 0 0 0
SMALL
GASTEIGER

@<TRIPOS>ATOM
      1 C         140.0902  141.4492  166.7327 C.3     1  UNL1        0.0781
      2 C         140.3759  142.9207  166.7874 C.3     1  UNL1        0.0372
      3 C         139.6775  143.8558  165.8451 C.3     1  UNL1        0.0738
      4 N         138.6935  143.3194  164.8482 N.3     1  UNL1       -0.2726
      5 C         138.4077  141.8478  164.7935 C.3     1  UNL1        0.0738
      6 C         139.1061  140.9127  165.7358 C.3     1  UNL1        0.0372
      7 N         140.7886  140.5141  167.6750 N.am    1  UNL1       -0.2808
      8 C         142.2358  140.1802  167.4650 C.2     1  UNL1        0.2300
      9 O         142.9342  139.2451  168.4072 O.2     1  UNL1       -0.2745
     10 C         140.1059  140.5545  170.1814 C.3     1  UNL1        0.0233
     11 C         140.0397  139.9128  168.8272 C.3     1  UNL1        0.0934
     12 C         142.9846  140.7815  166.3127 C.3     1  UNL1        0.1116
     13 C         142.9924  140.0910  164.9811 C.ar    1  UNL1       -0.0130
     14 C         141.6974  139.7287  164.3165 C.ar    1  UNL1       -0.0025
     15 C         141.7052  139.0382  162.9849 C.ar    1  UNL1        0.0180
     16 C         143.0081  138.7101  162.3179 C.ar    1  UNL1        0.1057
     17 C         144.3031  139.0724  162.9824 C.ar    1  UNL1        0.0180
     18 C         144.2953  139.7628  164.3140 C.ar    1  UNL1       -0.0025
     19 S         143.0158  138.0196  160.9862 S.O2    1  UNL1        0.0104
     20 C         143.0237  137.3291  159.6547 C.3     1  UNL1        0.1816
     21 O         144.3791  138.5783  160.7045 O.2     1  UNL1       -0.1686
     22 O         141.6526  137.4608  161.2680 O.2     1  UNL1       -0.1686
     23 C         137.9951  144.2545  163.9060 C.3     1  UNL1        0.0724
     24 C         138.7554  144.8918  162.7810 C.3     1  UNL1        0.0217
     25 C         139.7989  144.1076  162.0419 C.3     1  UNL1        0.0238
     26 C         141.2133  144.0848  162.5408 C.ar    1  UNL1       -0.0225
     27 C         141.7528  145.2479  163.3192 C.ar    1  UNL1       -0.0043
     28 C         143.1673  145.2251  163.8181 C.ar    1  UNL1       -0.0003
     29 C         144.0421  144.0392  163.5385 C.ar    1  UNL1       -0.0000
     30 C         143.5026  142.8760  162.7600 C.ar    1  UNL1       -0.0003
     31 C         142.0882  142.8988  162.2612 C.ar    1  UNL1       -0.0043
     32 C         139.4279  143.3461  160.8040 C.3     1  UNL1        0.0070
     33 C         139.7735  143.8976  159.4524 C.3     1  UNL1        0.0195
     34 C         139.4025  143.1361  158.2145 C.3     1  UNL1        0.0954
     35 N         138.6859  141.8232  158.3280 N.3     1  UNL1       -0.1594
     36 C         138.3403  141.2718  159.6794 C.3     1  UNL1        0.0954
     37 C         138.7113  142.0333  160.9175 C.3     1  UNL1        0.0195
     38 S         138.3150  141.0618  157.0901 S.O2    1  UNL1        0.0457
     39 C         137.9440  140.3004  155.8520 C.3     1  UNL1        0.1960
     40 O         137.9320  139.8805  157.9314 O.2     1  UNL1       -0.1572
     41 O         138.6979  142.2431  156.2487 O.2     1  UNL1       -0.1572
@<TRIPOS>BOND
     1    10    11    1
     2    11     7    1
     3     7     8   am
     4     8     9    2
     5     8    12    1
     6    12    13    1
     7    13    14   ar
     8    14    15   ar
     9    15    16   ar
    10    16    19    1
    11    19    20    1
    12    19    21    2
    13    19    22    2
    14    16    17   ar
    15    17    18   ar
    16     7     1    1
    17     1     2    1
    18     2     3    1
    19     3     4    1
    20     4    23    1
    21    23    24    1
    22    25    24    1
    23    25    26    1
    24    26    27   ar
    25    27    28   ar
    26    28    29   ar
    27    29    30   ar
    28    30    31   ar
    29    25    32    1
    30    32    33    1
    31    33    34    1
    32    34    35    1
    33    35    38    1
    34    38    39    1
    35    38    40    2
    36    38    41    2
    37    35    36    1
    38    36    37    1
    39     4     5    1
    40     5     6    1
    41    18    13   ar
    42     6     1    1
    43    31    26   ar
    44    37    32    1
@<TRIPOS>MOLECULE
*****
 41 44 0 0 0
SMALL
GASTEIGER

@<TRIPOS>ATOM
      1 C         141.3143  138.5156  160.1129 C.3     1  UNL1        0.0781
      2 C         142.0699  138.3228  161.3943 C.3     1  UNL1        0.0372
      3 C         141.3256  138.1062  162.6785 C.3     1  UNL1        0.0738
      4 N         139.8258  138.0825  162.6813 N.3     1  UNL1       -0.2726
      5 C         139.0702  138.2754  161.3999 C.3     1  UNL1        0.0738
      6 C         139.8145  138.4919  160.1157 C.3     1  UNL1        0.0372
      7 N         142.0586  138.7321  158.8287 N.am    1  UNL1       -0.2808
      8 C         142.2139  140.1181  158.2764 C.2     1  UNL1        0.2300
      9 O         142.9582  140.3346  156.9922 O.2     1  UNL1       -0.2745
     10 C         141.9338  136.9830  156.9118 C.3     1  UNL1        0.0233
     11 C         142.6476  137.5627  158.0968 C.3     1  UNL1        0.0934
     12 C         141.6250  141.2875  159.0083 C.3     1  UNL1        0.1116
     13 C         142.2201  141.7341  160.3108 C.ar    1  UNL1       -0.0130
     14 C         143.7099  141.8121  160.4671 C.ar    1  UNL1       -0.0025
     15 C         144.3049  142.2587  161.7695 C.ar    1  UNL1        0.0180
     16 C         143.4102  142.6273  162.9156 C.ar    1  UNL1        0.1057
     17 C         141.9205  142.5493  162.7593 C.ar    1  UNL1        0.0180
     18 C         141.3254  142.1027  161.4569 C.ar    1  UNL1       -0.0025
     19 S         144.0054  143.0739  164.2181 S.O2    1  UNL1        0.0104
     20 C         144.6005  143.5205  165.5206 C.3     1  UNL1        0.1816
     21 O         145.2971  142.4016  163.8584 O.2     1  UNL1       -0.1686
     22 O         142.7136  143.7462  164.5779 O.2     1  UNL1       -0.1686
     23 C         139.0815  137.8660  163.9655 C.3     1  UNL1        0.0724
     24 C         138.2459  138.9696  164.5433 C.3     1  UNL1        0.0217
     25 C         138.9017  140.2182  165.0540 C.3     1  UNL1        0.0238
     26 C         138.6488  141.5305  164.3730 C.ar    1  UNL1       -0.0225
     27 C         139.0163  142.8137  165.0573 C.ar    1  UNL1       -0.0043
     28 C         138.7633  144.1261  164.3762 C.ar    1  UNL1       -0.0003
     29 C         138.1428  144.1552  163.0110 C.ar    1  UNL1       -0.0000
     30 C         137.7752  142.8720  162.3267 C.ar    1  UNL1       -0.0003
     31 C         138.0282  141.5597  163.0076 C.ar    1  UNL1       -0.0043
     32 C         139.8105  140.1546  166.2456 C.3     1  UNL1        0.0070
     33 C         139.2314  140.0758  167.6271 C.3     1  UNL1        0.0195
     34 C         140.1402  140.0122  168.8188 C.3     1  UNL1        0.0954
     35 N         141.6280  140.0272  168.6290 N.3     1  UNL1       -0.1594
     36 C         142.2071  140.1060  167.2476 C.3     1  UNL1        0.0954
     37 C         141.2984  140.1696  166.0558 C.3     1  UNL1        0.0195
     38 S         142.5368  139.9636  169.8206 S.O2    1  UNL1        0.0457
     39 C         143.4456  139.8999  171.0123 C.3     1  UNL1        0.1960
     40 O         142.1715  141.3747  170.1746 O.2     1  UNL1       -0.1572
     41 O         142.9021  138.5525  169.4667 O.2     1  UNL1       -0.1572
@<TRIPOS>BOND
     1    10    11    1
     2    11     7    1
     3     7     8   am
     4     8     9    2
     5     8    12    1
     6    12    13    1
     7    13    14   ar
     8    14    15   ar
     9    15    16   ar
    10    16    19    1
    11    19    20    1
    12    19    21    2
    13    19    22    2
    14    16    17   ar
    15    17    18   ar
    16     7     1    1
    17     1     2    1
    18     2     3    1
    19     3     4    1
    20     4    23    1
    21    23    24    1
    22    25    24    1
    23    25    26    1
    24    26    27   ar
    25    27    28   ar
    26    28    29   ar
    27    29    30   ar
    28    30    31   ar
    29    25    32    1
    30    32    33    1
    31    33    34    1
    32    34    35    1
    33    35    38    1
    34    38    39    1
    35    38    40    2
    36    38    41    2
    37    35    36    1
    38    36    37    1
    39     4     5    1
    40     5     6    1
    41    18    13   ar
    42     6     1    1
    43    31    26   ar
    44    37    32    1
@<TRIPOS>MOLECULE
*****
 41 44 0 0 0
SMALL
GASTEIGER

@<TRIPOS>ATOM
      1 C         141.9621  138.4046  160.0176 C.3     1  UNL1        0.0781
      2 C         140.4679  138.5187  159.9506 C.3     1  UNL1        0.0372
      3 C         139.6352  138.1789  161.1511 C.3     1  UNL1        0.0738
      4 N         140.2966  137.7251  162.4186 N.3     1  UNL1       -0.2726
      5 C         141.7908  137.6110  162.4856 C.3     1  UNL1        0.0738
      6 C         142.6235  137.9507  161.2851 C.3     1  UNL1        0.0372
      7 N         142.7948  138.7443  158.8171 N.am    1  UNL1       -0.2808
      8 C         143.7974  139.8576  158.8905 C.2     1  UNL1        0.2300
      9 O         144.6301  140.1974  157.6900 O.2     1  UNL1       -0.2745
     10 C         141.8052  138.5402  156.4237 C.3     1  UNL1        0.0233
     11 C         142.6249  137.9707  157.5433 C.3     1  UNL1        0.0934
     12 C         143.9672  140.6312  160.1644 C.3     1  UNL1        0.1116
     13 C         143.0854  141.8109  160.4487 C.ar    1  UNL1       -0.0130
     14 C         142.5695  142.0441  161.8377 C.ar    1  UNL1       -0.0025
     15 C         141.6877  143.2238  162.1220 C.ar    1  UNL1        0.0180
     16 C         141.3219  144.1702  161.0173 C.ar    1  UNL1        0.1057
     17 C         141.8377  143.9370  159.6283 C.ar    1  UNL1        0.0180
     18 C         142.7195  142.7573  159.3440 C.ar    1  UNL1       -0.0025
     19 S         140.4400  145.3499  161.3017 S.O2    1  UNL1        0.0104
     20 C         139.5583  146.5295  161.5861 C.3     1  UNL1        0.1816
     21 O         141.0411  145.4691  162.6707 O.2     1  UNL1       -0.1686
     22 O         139.8389  145.2306  159.9326 O.2     1  UNL1       -0.1686
     23 C         139.4639  137.3854  163.6191 C.3     1  UNL1        0.0724
     24 C         138.4682  138.3759  164.1458 C.3     1  UNL1        0.0217
     25 C         138.9354  139.6978  164.6790 C.3     1  UNL1        0.0238
     26 C         138.5450  140.9677  163.9827 C.ar    1  UNL1       -0.0225
     27 C         138.4150  140.9943  162.4886 C.ar    1  UNL1       -0.0043
     28 C         138.0246  142.2643  161.7923 C.ar    1  UNL1       -0.0003
     29 C         137.7641  143.5075  162.5901 C.ar    1  UNL1       -0.0000
     30 C         137.8941  143.4809  164.0842 C.ar    1  UNL1       -0.0003
     31 C         138.2845  142.2110  164.7805 C.ar    1  UNL1       -0.0043
     32 C         139.7930  139.7498  165.9085 C.3     1  UNL1        0.0070
     33 C         141.2875  139.7212  165.7824 C.3     1  UNL1        0.0195
     34 C         142.1451  139.7733  167.0119 C.3     1  UNL1        0.0954
     35 N         141.5083  139.8538  168.3676 N.3     1  UNL1       -0.1594
     36 C         140.0139  139.8824  168.4938 C.3     1  UNL1        0.0954
     37 C         139.1562  139.8304  167.2643 C.3     1  UNL1        0.0195
     38 S         142.3659  139.9059  169.5971 S.O2    1  UNL1        0.0457
     39 C         143.2236  139.9578  170.8267 C.3     1  UNL1        0.1960
     40 O         141.6754  141.1667  170.0254 O.2     1  UNL1       -0.1572
     41 O         143.0563  138.6450  169.1689 O.2     1  UNL1       -0.1572
@<TRIPOS>BOND
     1    10    11    1
     2    11     7    1
     3     7     8   am
     4     8     9    2
     5     8    12    1
     6    12    13    1
     7    13    14   ar
     8    14    15   ar
     9    15    16   ar
    10    16    19    1
    11    19    20    1
    12    19    21    2
    13    19    22    2
    14    16    17   ar
    15    17    18   ar
    16     7     1    1
    17     1     2    1
    18     2     3    1
    19     3     4    1
    20     4    23    1
    21    23    24    1
    22    25    24    1
    23    25    26    1
    24    26    27   ar
    25    27    28   ar
    26    28    29   ar
    27    29    30   ar
    28    30    31   ar
    29    25    32    1
    30    32    33    1
    31    33    34    1
    32    34    35    1
    33    35    38    1
    34    38    39    1
    35    38    40    2
    36    38    41    2
    37    35    36    1
    38    36    37    1
    39     4     5    1
    40     5     6    1
    41    18    13   ar
    42     6     1    1
    43    31    26   ar
    44    37    32    1
@<TRIPOS>MOLECULE
*****
 41 44 0 0 0
SMALL
GASTEIGER

@<TRIPOS>ATOM
      1 C         142.6565  139.0565  159.6900 C.3     1  UNL1        0.0781
      2 C         143.1745  138.4180  160.9445 C.3     1  UNL1        0.0372
      3 C         144.0306  139.2077  161.8898 C.3     1  UNL1        0.0738
      4 N         144.3686  140.6360  161.5805 N.3     1  UNL1       -0.2726
      5 C         143.8505  141.2747  160.3259 C.3     1  UNL1        0.0738
      6 C         142.9945  140.4849  159.3807 C.3     1  UNL1        0.0372
      7 N         141.8005  138.2668  158.7447 N.am    1  UNL1       -0.2808
      8 C         140.3354  138.5674  158.6302 C.2     1  UNL1        0.2300
      9 O         139.4793  137.7776  157.6850 O.2     1  UNL1       -0.2745
     10 C         143.0605  137.5068  156.6036 C.3     1  UNL1        0.0233
     11 C         142.4096  137.1765  157.9139 C.3     1  UNL1        0.0934
     12 C         139.7263  139.6577  159.4610 C.3     1  UNL1        0.1116
     13 C         139.3894  139.4044  160.9006 C.ar    1  UNL1       -0.0130
     14 C         138.7814  140.4950  161.7317 C.ar    1  UNL1       -0.0025
     15 C         138.4445  140.2417  163.1713 C.ar    1  UNL1        0.0180
     16 C         138.7157  138.8977  163.7797 C.ar    1  UNL1        0.1057
     17 C         139.3238  137.8071  162.9486 C.ar    1  UNL1        0.0180
     18 C         139.6606  138.0604  161.5091 C.ar    1  UNL1       -0.0025
     19 S         138.3789  138.6445  165.2193 S.O2    1  UNL1        0.0104
     20 C         138.0420  138.3912  166.6589 C.3     1  UNL1        0.1816
     21 O         137.9209  140.0656  165.3622 O.2     1  UNL1       -0.1686
     22 O         138.8369  137.2233  165.0765 O.2     1  UNL1       -0.1686
     23 C         145.2246  141.4258  162.5258 C.3     1  UNL1        0.0724
     24 C         145.0350  141.2831  164.0069 C.3     1  UNL1        0.0217
     25 C         143.7471  141.7149  164.6432 C.3     1  UNL1        0.0238
     26 C         143.3536  141.1704  165.9843 C.ar    1  UNL1       -0.0225
     27 C         143.1255  142.1046  167.1355 C.ar    1  UNL1       -0.0043
     28 C         142.7320  141.5600  168.4767 C.ar    1  UNL1       -0.0003
     29 C         142.5666  140.0813  168.6666 C.ar    1  UNL1       -0.0000
     30 C         142.7948  139.1471  167.5153 C.ar    1  UNL1       -0.0003
     31 C         143.1883  139.6917  166.1742 C.ar    1  UNL1       -0.0043
     32 C         142.8528  142.6914  163.9385 C.3     1  UNL1        0.0070
     33 C         143.1455  144.1610  164.0068 C.3     1  UNL1        0.0195
     34 C         142.2512  145.1374  163.3020 C.3     1  UNL1        0.0954
     35 N         141.0641  144.6443  162.5289 N.3     1  UNL1       -0.1594
     36 C         140.7714  143.1748  162.4606 C.3     1  UNL1        0.0954
     37 C         141.6657  142.1983  163.1653 C.3     1  UNL1        0.0195
     38 S         140.1698  145.6207  161.8242 S.O2    1  UNL1        0.0457
     39 C         139.2754  146.5972  161.1194 C.3     1  UNL1        0.1960
     40 O         141.0835  145.5992  160.6349 O.2     1  UNL1       -0.1572
     41 O         139.2560  145.6422  163.0135 O.2     1  UNL1       -0.1572
@<TRIPOS>BOND
     1    10    11    1
     2    11     7    1
     3     7     8   am
     4     8     9    2
     5     8    12    1
     6    12    13    1
     7    13    14   ar
     8    14    15   ar
     9    15    16   ar
    10    16    19    1
    11    19    20    1
    12    19    21    2
    13    19    22    2
    14    16    17   ar
    15    17    18   ar
    16     7     1    1
    17     1     2    1
    18     2     3    1
    19     3     4    1
    20     4    23    1
    21    23    24    1
    22    25    24    1
    23    25    26    1
    24    26    27   ar
    25    27    28   ar
    26    28    29   ar
    27    29    30   ar
    28    30    31   ar
    29    25    32    1
    30    32    33    1
    31    33    34    1
    32    34    35    1
    33    35    38    1
    34    38    39    1
    35    38    40    2
    36    38    41    2
    37    35    36    1
    38    36    37    1
    39     4     5    1
    40     5     6    1
    41    18    13   ar
    42     6     1    1
    43    31    26   ar
    44    37    32    1
@<TRIPOS>MOLECULE
*****
 41 44 0 0 0
SMALL
GASTEIGER

@<TRIPOS>ATOM
      1 C         142.6539  138.8154  159.8412 C.3     1  UNL1        0.0781
      2 C         142.9102  138.1086  161.1392 C.3     1  UNL1        0.0372
      3 C         143.7367  138.7692  162.2024 C.3     1  UNL1        0.0738
      4 N         144.3070  140.1365  161.9677 N.3     1  UNL1       -0.2726
      5 C         144.0507  140.8434  160.6697 C.3     1  UNL1        0.0738
      6 C         143.2242  140.1829  159.6065 C.3     1  UNL1        0.0372
      7 N         141.8274  138.1549  158.7780 N.am    1  UNL1       -0.2808
      8 C         140.4179  138.6070  158.5347 C.2     1  UNL1        0.2300
      9 O         139.5913  137.9465  157.4715 O.2     1  UNL1       -0.2745
     10 C         142.9619  137.3267  156.5924 C.3     1  UNL1        0.0233
     11 C         142.4102  137.0423  157.9580 C.3     1  UNL1        0.0934
     12 C         139.8351  139.7196  159.3547 C.3     1  UNL1        0.1116
     13 C         139.4877  139.4871  160.7953 C.ar    1  UNL1       -0.0130
     14 C         139.5386  140.6243  161.7721 C.ar    1  UNL1       -0.0025
     15 C         139.1913  140.3917  163.2126 C.ar    1  UNL1        0.0180
     16 C         138.7930  139.0219  163.6764 C.ar    1  UNL1        0.1057
     17 C         138.7421  137.8847  162.6997 C.ar    1  UNL1        0.0180
     18 C         139.0895  138.1173  161.2591 C.ar    1  UNL1       -0.0025
     19 S         138.4457  138.7894  165.1171 S.O2    1  UNL1        0.0104
     20 C         138.0983  138.5569  166.5576 C.3     1  UNL1        0.1816
     21 O         138.0193  140.2217  165.2454 O.2     1  UNL1       -0.1686
     22 O         138.8720  137.3570  164.9887 O.2     1  UNL1       -0.1686
     23 C         145.1336  140.7970  163.0310 C.3     1  UNL1        0.0724
     24 C         144.7238  140.6961  164.4704 C.3     1  UNL1        0.0217
     25 C         143.6235  141.5673  164.9998 C.3     1  UNL1        0.0238
     26 C         143.2217  142.8048  164.2534 C.ar    1  UNL1       -0.0225
     27 C         142.0487  142.7695  163.3192 C.ar    1  UNL1       -0.0043
     28 C         141.6469  144.0071  162.5728 C.ar    1  UNL1       -0.0003
     29 C         142.4182  145.2798  162.7606 C.ar    1  UNL1       -0.0000
     30 C         143.5912  145.3151  163.6948 C.ar    1  UNL1       -0.0003
     31 C         143.9930  144.0776  164.4412 C.ar    1  UNL1       -0.0043
     32 C         142.9249  141.2010  166.2757 C.3     1  UNL1        0.0070
     33 C         142.1447  142.2380  167.0280 C.3     1  UNL1        0.0195
     34 C         141.4462  141.8718  168.3039 C.3     1  UNL1        0.0954
     35 N         141.5278  140.4685  168.8274 N.3     1  UNL1       -0.1594
     36 C         142.3079  139.4315  168.0752 C.3     1  UNL1        0.0954
     37 C         143.0065  139.7977  166.7993 C.3     1  UNL1        0.0195
     38 S         140.8293  140.1022  170.1033 S.O2    1  UNL1        0.0457
     39 C         140.1308  139.7359  171.3793 C.3     1  UNL1        0.1960
     40 O         139.5756  139.8106  169.3332 O.2     1  UNL1       -0.1572
     41 O         142.0830  140.3939  170.8734 O.2     1  UNL1       -0.1572
@<TRIPOS>BOND
     1    10    11    1
     2    11     7    1
     3     7     8   am
     4     8     9    2
     5     8    12    1
     6    12    13    1
     7    13    14   ar
     8    14    15   ar
     9    15    16   ar
    10    16    19    1
    11    19    20    1
    12    19    21    2
    13    19    22    2
    14    16    17   ar
    15    17    18   ar
    16     7     1    1
    17     1     2    1
    18     2     3    1
    19     3     4    1
    20     4    23    1
    21    23    24    1
    22    25    24    1
    23    25    26    1
    24    26    27   ar
    25    27    28   ar
    26    28    29   ar
    27    29    30   ar
    28    30    31   ar
    29    25    32    1
    30    32    33    1
    31    33    34    1
    32    34    35    1
    33    35    38    1
    34    38    39    1
    35    38    40    2
    36    38    41    2
    37    35    36    1
    38    36    37    1
    39     4     5    1
    40     5     6    1
    41    18    13   ar
    42     6     1    1
    43    31    26   ar
    44    37    32    1
@<TRIPOS>MOLECULE
*****
 41 44 0 0 0
SMALL
GASTEIGER

@<TRIPOS>ATOM
      1 C         139.9914  141.4262  166.4150 C.3     1  UNL1        0.0781
      2 C         139.0888  142.2103  165.5093 C.3     1  UNL1        0.0372
      3 C         139.6342  143.3666  164.7247 C.3     1  UNL1        0.0738
      4 N         141.0822  143.7388  164.8459 N.3     1  UNL1       -0.2726
      5 C         141.9849  142.9547  165.7516 C.3     1  UNL1        0.0738
      6 C         141.4395  141.7984  166.5362 C.3     1  UNL1        0.0372
      7 N         139.4461  140.2699  167.1995 N.am    1  UNL1       -0.2808
      8 C         138.5005  139.3028  166.5508 C.2     1  UNL1        0.2300
      9 O         137.9551  138.1465  167.3354 O.2     1  UNL1       -0.2745
     10 C         138.9119  140.4898  169.7325 C.3     1  UNL1        0.0233
     11 C         139.8462  140.0806  168.6327 C.3     1  UNL1        0.0934
     12 C         138.1003  139.4921  165.1177 C.3     1  UNL1        0.1116
     13 C         139.0512  139.1216  164.0182 C.ar    1  UNL1       -0.0130
     14 C         140.0574  138.0301  164.2329 C.ar    1  UNL1       -0.0025
     15 C         141.0082  137.6598  163.1336 C.ar    1  UNL1        0.0180
     16 C         140.9529  138.3809  161.8195 C.ar    1  UNL1        0.1057
     17 C         139.9467  139.4725  161.6048 C.ar    1  UNL1        0.0180
     18 C         138.9959  139.8428  162.7042 C.ar    1  UNL1       -0.0025
     19 S         141.9038  138.0105  160.7200 S.O2    1  UNL1        0.0104
     20 C         142.8546  137.6402  159.6206 C.3     1  UNL1        0.1816
     21 O         140.8798  138.4107  159.6996 O.2     1  UNL1       -0.1686
     22 O         142.9278  137.6104  161.7404 O.2     1  UNL1       -0.1686
     23 C         141.6275  144.8951  164.0613 C.3     1  UNL1        0.0724
     24 C         142.3047  144.6553  162.7446 C.3     1  UNL1        0.0217
     25 C         142.4148  143.2617  162.2007 C.3     1  UNL1        0.0238
     26 C         143.3892  142.2951  162.8060 C.ar    1  UNL1       -0.0225
     27 C         142.9209  140.9454  163.2630 C.ar    1  UNL1       -0.0043
     28 C         143.8953  139.9788  163.8684 C.ar    1  UNL1       -0.0003
     29 C         145.3379  140.3621  164.0167 C.ar    1  UNL1       -0.0000
     30 C         145.8061  141.7118  163.5597 C.ar    1  UNL1       -0.0003
     31 C         144.8318  142.6784  162.9544 C.ar    1  UNL1       -0.0043
     32 C         141.5506  142.8346  161.0515 C.3     1  UNL1        0.0070
     33 C         142.1547  142.1010  159.8909 C.3     1  UNL1        0.0195
     34 C         141.2905  141.6739  158.7417 C.3     1  UNL1        0.0954
     35 N         139.8222  141.9805  158.7530 N.3     1  UNL1       -0.1594
     36 C         139.2181  142.7141  159.9135 C.3     1  UNL1        0.0954
     37 C         140.0824  143.1412  161.0628 C.3     1  UNL1        0.0195
     38 S         138.9580  141.5535  157.6037 S.O2    1  UNL1        0.0457
     39 C         138.0938  141.1264  156.4544 C.3     1  UNL1        0.1960
     40 O         138.1279  140.7227  158.5367 O.2     1  UNL1       -0.1572
     41 O         139.7882  142.3843  156.6707 O.2     1  UNL1       -0.1572
@<TRIPOS>BOND
     1    10    11    1
     2    11     7    1
     3     7     8   am
     4     8     9    2
     5     8    12    1
     6    12    13    1
     7    13    14   ar
     8    14    15   ar
     9    15    16   ar
    10    16    19    1
    11    19    20    1
    12    19    21    2
    13    19    22    2
    14    16    17   ar
    15    17    18   ar
    16     7     1    1
    17     1     2    1
    18     2     3    1
    19     3     4    1
    20     4    23    1
    21    23    24    1
    22    25    24    1
    23    25    26    1
    24    26    27   ar
    25    27    28   ar
    26    28    29   ar
    27    29    30   ar
    28    30    31   ar
    29    25    32    1
    30    32    33    1
    31    33    34    1
    32    34    35    1
    33    35    38    1
    34    38    39    1
    35    38    40    2
    36    38    41    2
    37    35    36    1
    38    36    37    1
    39     4     5    1
    40     5     6    1
    41    18    13   ar
    42     6     1    1
    43    31    26   ar
    44    37    32    1
