@<TRIPOS>MOLECULE
*****
 45 50 0 0 0
SMALL
GASTEIGER

@<TRIPOS>ATOM
      1 C         140.3253  141.5745  162.7541 C.3     1  UNL1        0.0235
      2 C         141.0644  140.3130  162.4185 C.3     1  UNL1        0.0256
      3 C         141.2692  139.9225  160.9848 C.3     1  UNL1        0.0937
      4 N         140.7349  140.7935  159.8866 N.am    1  UNL1       -0.2792
      5 C         140.9398  140.4029  158.4528 C.2     1  UNL1        0.2330
      6 O         140.4055  141.2739  157.3546 O.2     1  UNL1       -0.2744
      7 C         139.9959  142.0549  160.2221 C.3     1  UNL1        0.0937
      8 C         139.7911  142.4454  161.6558 C.3     1  UNL1        0.0256
      9 C         139.6958  142.6650  163.5693 C.ar    1  UNL1       -0.0226
     10 C         140.3354  144.0204  163.6300 C.ar    1  UNL1       -0.0043
     11 C         139.7059  145.1110  164.4452 C.ar    1  UNL1       -0.0003
     12 C         138.4368  144.8460  165.1997 C.ar    1  UNL1       -0.0000
     13 C         137.7972  143.4905  165.1390 C.ar    1  UNL1       -0.0003
     14 C         138.4268  142.4001  164.3237 C.ar    1  UNL1       -0.0043
     15 C         141.6788  139.1415  158.1174 C.3     1  UNL1        0.1388
     16 C         142.9726  139.9005  158.1139 C.3     1  UNL1        0.0184
     17 C         140.3850  138.3826  158.1209 C.3     1  UNL1        0.0184
     18 C         142.4178  137.8800  157.7820 C.2     1  UNL1        0.2479
     19 O         143.1141  137.1085  158.8636 O.2     1  UNL1       -0.2731
     20 N         142.4605  137.3900  156.3649 N.am    1  UNL1       -0.1883
     21 H         142.0035  137.8964  155.6550 H       1  UNL1        0.1762
     22 S         143.1994  136.1285  156.0294 S.O2    1  UNL1        0.0578
     23 C         143.9383  134.8670  155.6939 C.3     1  UNL1        0.1997
     24 O         141.9559  135.3310  156.2895 O.2     1  UNL1       -0.1544
     25 O         144.4429  136.9261  155.7693 O.2     1  UNL1       -0.1544
     26 C         140.6409  141.0823  164.1353 C.3     1  UNL1        0.0215
     27 C         142.0502  141.1351  164.6466 C.3     1  UNL1        0.0723
     28 C         142.1682  141.0840  164.5567 C.3     1  UNL1        0.0893
     29 C         142.4302  142.5225  164.2215 C.3     1  UNL1        0.0386
     30 C         143.5517  142.8841  163.2935 C.3     1  UNL1        0.0594
     31 C         144.7250  142.7793  162.3648 C.3     1  UNL1        0.0174
     32 C         145.0701  141.3272  162.2160 C.3     1  UNL1        0.0174
     33 C         144.1101  140.5344  163.0527 C.3     1  UNL1        0.0594
     34 C         143.0279  140.0073  163.9638 C.3     1  UNL1        0.0386
     35 N         143.1716  141.4967  163.7186 N.3     1  UNL1       -0.2751
     36 C         141.3995  142.7712  166.8497 C.3     1  UNL1        0.0718
     37 C         140.5913  141.5203  166.6705 C.ar    1  UNL1        0.1207
     38 N         139.4468  140.7904  167.3085 N.ar    1  UNL1       -0.2309
     39 C         139.1947  139.5412  166.5172 C.ar    1  UNL1        0.0983
     40 C         138.1926  138.4367  166.6774 C.ar    1  UNL1        0.0206
     41 C         138.1793  137.2901  165.7104 C.ar    1  UNL1        0.0016
     42 C         139.1681  137.2481  164.5833 C.ar    1  UNL1        0.0016
     43 C         140.1702  138.3526  164.4231 C.ar    1  UNL1        0.0188
     44 C         140.1835  139.4992  165.3901 C.ar    1  UNL1        0.0785
     45 N         141.0467  140.7223  165.4848 N.ar    1  UNL1       -0.3167
@<TRIPOS>BOND
     1    36    37    1
     2    37    38   ar
     3    38    39   ar
     4    39    40   ar
     5    40    41   ar
     6    41    42   ar
     7    42    43   ar
     8    43    44   ar
     9    44    45   ar
    10    45    28    1
    11    28    29    1
    12    29    30    1
    13    30    31    1
    14    31    32    1
    15    32    33    1
    16    33    34    1
    17    33    35    1
    18    35    27    1
    19    27    26    1
    20    26     1    1
    21     1     9    1
    22     9    10   ar
    23    10    11   ar
    24    11    12   ar
    25    12    13   ar
    26    13    14   ar
    27     1     2    1
    28     2     3    1
    29     3     4    1
    30     4     5   am
    31     5     6    2
    32     5    15    1
    33    15    16    1
    34    15    17    1
    35    15    18    1
    36    18    19    2
    37    18    20   am
    38    20    22    1
    39    22    23    1
    40    22    24    2
    41    22    25    2
    42     4     7    1
    43     7     8    1
    44    45    37   ar
    45    34    28    1
    46     8     1    1
    47    44    39   ar
    48    35    30    1
    49    14     9   ar
    50    20    21    1
@<TRIPOS>MOLECULE
*****
 45 50 0 0 0
SMALL
GASTEIGER

@<TRIPOS>ATOM
      1 C         140.8455  141.1961  161.0577 C.3     1  UNL1        0.0235
      2 C         140.2196  140.0224  160.3643 C.3     1  UNL1        0.0256
      3 C         140.9598  139.3178  159.2663 C.3     1  UNL1        0.0937
      4 N         142.3259  139.7869  158.8617 N.am    1  UNL1       -0.2792
      5 C         143.0661  139.0823  157.7636 C.2     1  UNL1        0.2330
      6 O         144.4322  139.5513  157.3590 O.2     1  UNL1       -0.2744
      7 C         142.9518  140.9605  159.5551 C.3     1  UNL1        0.0937
      8 C         142.2116  141.6651  160.6531 C.3     1  UNL1        0.0256
      9 C         141.0178  142.3455  162.0061 C.ar    1  UNL1       -0.0226
     10 C         141.2357  142.0860  163.4673 C.ar    1  UNL1       -0.0043
     11 C         141.4080  143.2355  164.4156 C.ar    1  UNL1       -0.0003
     12 C         141.3624  144.6443  163.9025 C.ar    1  UNL1       -0.0000
     13 C         141.1445  144.9037  162.4413 C.ar    1  UNL1       -0.0003
     14 C         140.9722  143.7542  161.4931 C.ar    1  UNL1       -0.0043
     15 C         142.4401  137.9087  157.0703 C.3     1  UNL1        0.1388
     16 C         142.8954  137.0095  158.1812 C.3     1  UNL1        0.0184
     17 C         141.9848  138.8079  155.9594 C.3     1  UNL1        0.0184
     18 C         141.8141  136.7351  156.3768 C.2     1  UNL1        0.2479
     19 O         140.3367  136.7176  156.1177 O.2     1  UNL1       -0.2731
     20 N         142.6654  135.5790  155.9426 N.am    1  UNL1       -0.1883
     21 H         143.6351  135.5904  156.1127 H       1  UNL1        0.1762
     22 S         142.0395  134.4054  155.2492 S.O2    1  UNL1        0.0578
     23 C         141.4136  133.2317  154.5558 C.3     1  UNL1        0.1997
     24 O         142.0687  133.6311  156.5335 O.2     1  UNL1       -0.1544
     25 O         142.0104  135.1797  153.9648 O.2     1  UNL1       -0.1544
     26 C         139.5392  141.1262  161.7917 C.3     1  UNL1        0.0215
     27 C         138.2607  141.4576  161.0806 C.3     1  UNL1        0.0723
     28 C         138.2290  141.3951  160.9401 C.3     1  UNL1        0.0893
     29 C         138.7031  142.6885  160.3463 C.3     1  UNL1        0.0386
     30 C         138.6995  142.8764  158.8582 C.3     1  UNL1        0.0594
     31 C         138.5263  142.6272  157.3892 C.3     1  UNL1        0.0174
     32 C         137.9767  141.2424  157.2156 C.3     1  UNL1        0.0174
     33 C         137.8103  140.6356  158.5773 C.3     1  UNL1        0.0594
     34 C         137.7513  140.2898  160.0457 C.3     1  UNL1        0.0386
     35 N         138.2571  141.6455  159.5925 N.3     1  UNL1       -0.2751
     36 C         137.6929  143.6031  162.8197 C.3     1  UNL1        0.0718
     37 C         137.9711  142.2718  163.4521 C.ar    1  UNL1        0.1207
     38 N         138.0753  141.6441  164.8105 N.ar    1  UNL1       -0.2309
     39 C         138.4012  140.1916  164.6262 C.ar    1  UNL1        0.0983
     40 C         138.6219  139.0800  165.6088 C.ar    1  UNL1        0.0206
     41 C         138.9399  137.6983  165.1192 C.ar    1  UNL1        0.0016
     42 C         139.0371  137.4282  163.6469 C.ar    1  UNL1        0.0016
     43 C         138.8164  138.5398  162.6643 C.ar    1  UNL1        0.0188
     44 C         138.4984  139.9215  163.1539 C.ar    1  UNL1        0.0785
     45 N         138.2326  141.2071  162.4283 N.ar    1  UNL1       -0.3167
@<TRIPOS>BOND
     1    36    37    1
     2    37    38   ar
     3    38    39   ar
     4    39    40   ar
     5    40    41   ar
     6    41    42   ar
     7    42    43   ar
     8    43    44   ar
     9    44    45   ar
    10    45    28    1
    11    28    29    1
    12    29    30    1
    13    30    31    1
    14    31    32    1
    15    32    33    1
    16    33    34    1
    17    33    35    1
    18    35    27    1
    19    27    26    1
    20    26     1    1
    21     1     9    1
    22     9    10   ar
    23    10    11   ar
    24    11    12   ar
    25    12    13   ar
    26    13    14   ar
    27     1     2    1
    28     2     3    1
    29     3     4    1
    30     4     5   am
    31     5     6    2
    32     5    15    1
    33    15    16    1
    34    15    17    1
    35    15    18    1
    36    18    19    2
    37    18    20   am
    38    20    22    1
    39    22    23    1
    40    22    24    2
    41    22    25    2
    42     4     7    1
    43     7     8    1
    44    45    37   ar
    45    34    28    1
    46     8     1    1
    47    44    39   ar
    48    35    30    1
    49    14     9   ar
    50    20    21    1
@<TRIPOS>MOLECULE
*****
 45 50 0 0 0
SMALL
GASTEIGER

@<TRIPOS>ATOM
      1 C         141.1961  141.3933  161.9007 C.3     1  UNL1        0.0235
      2 C         142.3564  140.7238  161.2259 C.3     1  UNL1        0.0256
      3 C         143.0315  141.3864  160.0618 C.3     1  UNL1        0.0937
      4 N         142.5462  142.7187  159.5724 N.am    1  UNL1       -0.2792
      5 C         143.2213  143.3814  158.4083 C.2     1  UNL1        0.2330
      6 O         142.7360  144.7137  157.9189 O.2     1  UNL1       -0.2744
      7 C         141.3859  143.3883  160.2472 C.3     1  UNL1        0.0937
      8 C         140.7108  142.7257  161.4112 C.3     1  UNL1        0.0256
      9 C         140.0682  141.6287  162.8612 C.ar    1  UNL1       -0.0226
     10 C         140.2071  142.6581  163.9433 C.ar    1  UNL1       -0.0043
     11 C         139.0792  142.8935  164.9038 C.ar    1  UNL1       -0.0003
     12 C         137.8125  142.0993  164.7822 C.ar    1  UNL1       -0.0000
     13 C         137.6736  141.0699  163.7000 C.ar    1  UNL1       -0.0003
     14 C         138.8016  140.8346  162.7396 C.ar    1  UNL1       -0.0043
     15 C         144.3816  142.7117  157.7336 C.3     1  UNL1        0.1388
     16 C         143.5360  142.4709  156.5184 C.3     1  UNL1        0.0184
     17 C         145.2271  142.9526  158.9490 C.3     1  UNL1        0.0184
     18 C         145.5420  142.0421  157.0590 C.2     1  UNL1        0.2479
     19 O         145.5837  140.5468  156.9475 O.2     1  UNL1       -0.2731
     20 N         146.6606  142.8677  156.4960 N.am    1  UNL1       -0.1883
     21 H         146.6332  143.8491  156.5693 H       1  UNL1        0.1762
     22 S         147.8210  142.1982  155.8214 S.O2    1  UNL1        0.0578
     23 C         148.9815  141.5286  155.1469 C.3     1  UNL1        0.1997
     24 O         148.6373  142.3550  157.0701 O.2     1  UNL1       -0.1544
     25 O         147.0047  142.0414  154.5728 O.2     1  UNL1       -0.1544
     26 C         141.2896  140.1429  162.7236 C.3     1  UNL1        0.0215
     27 C         142.4624  139.9303  163.6344 C.3     1  UNL1        0.0723
     28 C         142.6090  139.9587  163.5859 C.3     1  UNL1        0.0893
     29 C         142.4954  141.2859  164.2758 C.3     1  UNL1        0.0386
     30 C         143.6481  142.2453  164.2507 C.3     1  UNL1        0.0594
     31 C         144.9906  142.8555  163.9762 C.3     1  UNL1        0.0174
     32 C         145.7874  141.8770  163.1651 C.3     1  UNL1        0.0174
     33 C         144.9373  140.6621  162.9383 C.3     1  UNL1        0.0594
     34 C         143.8754  139.5911  162.8710 C.3     1  UNL1        0.0386
     35 N         143.6151  140.8897  163.6093 N.3     1  UNL1       -0.2751
     36 C         142.1313  137.9957  161.4379 C.3     1  UNL1        0.0718
     37 C         141.1408  137.9724  162.5641 C.ar    1  UNL1        0.1207
     38 N         139.9062  137.2367  162.9936 N.ar    1  UNL1       -0.2309
     39 C         139.4586  137.8089  164.3060 C.ar    1  UNL1        0.0983
     40 C         138.3025  137.4787  165.2028 C.ar    1  UNL1        0.0206
     41 C         138.1044  138.2378  166.4813 C.ar    1  UNL1        0.0016
     42 C         139.0624  139.3271  166.8629 C.ar    1  UNL1        0.0016
     43 C         140.2186  139.6573  165.9661 C.ar    1  UNL1        0.0188
     44 C         140.4166  138.8982  164.6876 C.ar    1  UNL1        0.0785
     45 N         141.4563  138.9992  163.6111 N.ar    1  UNL1       -0.3167
@<TRIPOS>BOND
     1    36    37    1
     2    37    38   ar
     3    38    39   ar
     4    39    40   ar
     5    40    41   ar
     6    41    42   ar
     7    42    43   ar
     8    43    44   ar
     9    44    45   ar
    10    45    28    1
    11    28    29    1
    12    29    30    1
    13    30    31    1
    14    31    32    1
    15    32    33    1
    16    33    34    1
    17    33    35    1
    18    35    27    1
    19    27    26    1
    20    26     1    1
    21     1     9    1
    22     9    10   ar
    23    10    11   ar
    24    11    12   ar
    25    12    13   ar
    26    13    14   ar
    27     1     2    1
    28     2     3    1
    29     3     4    1
    30     4     5   am
    31     5     6    2
    32     5    15    1
    33    15    16    1
    34    15    17    1
    35    15    18    1
    36    18    19    2
    37    18    20   am
    38    20    22    1
    39    22    23    1
    40    22    24    2
    41    22    25    2
    42     4     7    1
    43     7     8    1
    44    45    37   ar
    45    34    28    1
    46     8     1    1
    47    44    39   ar
    48    35    30    1
    49    14     9   ar
    50    20    21    1
@<TRIPOS>MOLECULE
*****
 45 50 0 0 0
SMALL
GASTEIGER

@<TRIPOS>ATOM
      1 C         141.1327  140.9564  161.5276 C.3     1  UNL1        0.0235
      2 C         142.2819  140.3381  160.7879 C.3     1  UNL1        0.0256
      3 C         142.9991  141.1200  159.7276 C.3     1  UNL1        0.0937
      4 N         142.5672  142.5202  159.4069 N.am    1  UNL1       -0.2792
      5 C         143.2844  143.3021  158.3466 C.2     1  UNL1        0.2330
      6 O         142.8525  144.7023  158.0260 O.2     1  UNL1       -0.2744
      7 C         141.4180  143.1385  160.1466 C.3     1  UNL1        0.0937
      8 C         140.7008  142.3567  161.2068 C.3     1  UNL1        0.0256
      9 C         139.9964  141.1066  162.4953 C.ar    1  UNL1       -0.0226
     10 C         138.5812  141.0902  161.9987 C.ar    1  UNL1       -0.0043
     11 C         137.4449  141.2404  162.9664 C.ar    1  UNL1       -0.0003
     12 C         137.7241  141.4071  164.4308 C.ar    1  UNL1       -0.0000
     13 C         139.1395  141.4235  164.9274 C.ar    1  UNL1       -0.0003
     14 C         140.2756  141.2733  163.9596 C.ar    1  UNL1       -0.0043
     15 C         144.4336  142.6837  157.6070 C.3     1  UNL1        0.1388
     16 C         145.3226  142.9183  158.7922 C.3     1  UNL1        0.0184
     17 C         143.5445  142.4491  156.4219 C.3     1  UNL1        0.0184
     18 C         145.5827  142.0653  156.8673 C.2     1  UNL1        0.2479
     19 O         145.6490  140.5768  156.6937 O.2     1  UNL1       -0.2731
     20 N         146.6655  142.9353  156.3012 N.am    1  UNL1       -0.1883
     21 H         146.6220  143.9122  156.4152 H       1  UNL1        0.1762
     22 S         147.8147  142.3170  155.5615 S.O2    1  UNL1        0.0578
     23 C         148.9637  141.6987  154.8218 C.3     1  UNL1        0.1997
     24 O         147.0171  142.3542  154.2917 O.2     1  UNL1       -0.1544
     25 O         148.6121  142.2799  156.8314 O.2     1  UNL1       -0.1544
     26 C         141.1700  139.6084  162.1843 C.3     1  UNL1        0.0215
     27 C         140.8165  138.3809  161.3979 C.3     1  UNL1        0.0723
     28 C         140.8816  138.3586  161.2568 C.3     1  UNL1        0.0893
     29 C         139.5919  138.8524  160.6711 C.3     1  UNL1        0.0386
     30 C         139.4279  138.9367  159.1824 C.3     1  UNL1        0.0594
     31 C         139.7029  138.8557  157.7101 C.3     1  UNL1        0.0174
     32 C         141.0974  138.3343  157.5270 C.3     1  UNL1        0.0174
     33 C         141.6843  138.0929  158.8861 C.3     1  UNL1        0.0594
     34 C         142.0072  137.9492  160.3539 C.3     1  UNL1        0.0386
     35 N         140.6525  138.4652  159.9093 N.3     1  UNL1       -0.2751
     36 C         138.6629  137.6341  163.0590 C.3     1  UNL1        0.0718
     37 C         139.9740  137.9145  163.7315 C.ar    1  UNL1        0.1207
     38 N         140.5761  137.9528  165.1048 N.ar    1  UNL1       -0.2309
     39 C         142.0198  138.3362  164.9675 C.ar    1  UNL1        0.0983
     40 C         143.1076  138.5301  165.9819 C.ar    1  UNL1        0.0206
     41 C         144.4856  138.9227  165.5381 C.ar    1  UNL1        0.0016
     42 C         144.7757  139.1213  164.0799 C.ar    1  UNL1        0.0016
     43 C         143.6879  138.9274  163.0655 C.ar    1  UNL1        0.0188
     44 C         142.3099  138.5349  163.5093 C.ar    1  UNL1        0.0785
     45 N         141.0456  138.2743  162.7454 N.ar    1  UNL1       -0.3167
@<TRIPOS>BOND
     1    36    37    1
     2    37    38   ar
     3    38    39   ar
     4    39    40   ar
     5    40    41   ar
     6    41    42   ar
     7    42    43   ar
     8    43    44   ar
     9    44    45   ar
    10    45    28    1
    11    28    29    1
    12    29    30    1
    13    30    31    1
    14    31    32    1
    15    32    33    1
    16    33    34    1
    17    33    35    1
    18    35    27    1
    19    27    26    1
    20    26     1    1
    21     1     9    1
    22     9    10   ar
    23    10    11   ar
    24    11    12   ar
    25    12    13   ar
    26    13    14   ar
    27     1     2    1
    28     2     3    1
    29     3     4    1
    30     4     5   am
    31     5     6    2
    32     5    15    1
    33    15    16    1
    34    15    17    1
    35    15    18    1
    36    18    19    2
    37    18    20   am
    38    20    22    1
    39    22    23    1
    40    22    24    2
    41    22    25    2
    42     4     7    1
    43     7     8    1
    44    45    37   ar
    45    34    28    1
    46     8     1    1
    47    44    39   ar
    48    35    30    1
    49    14     9   ar
    50    20    21    1
@<TRIPOS>MOLECULE
*****
 45 50 0 0 0
SMALL
GASTEIGER

@<TRIPOS>ATOM
      1 C         141.6977  141.8303  164.9956 C.3     1  UNL1        0.0235
      2 C         141.7913  140.8914  163.8296 C.3     1  UNL1        0.0256
      3 C         141.9206  141.4349  162.4375 C.3     1  UNL1        0.0937
      4 N         141.9563  142.9173  162.2115 N.am    1  UNL1       -0.2792
      5 C         142.0857  143.4609  160.8194 C.2     1  UNL1        0.2330
      6 O         142.1214  144.9433  160.5933 O.2     1  UNL1       -0.2744
      7 C         141.8627  143.8562  163.3775 C.3     1  UNL1        0.0937
      8 C         141.7334  143.3128  164.7695 C.3     1  UNL1        0.0256
      9 C         141.5771  142.3126  166.4109 C.ar    1  UNL1       -0.0226
     10 C         140.2938  142.9255  166.8876 C.ar    1  UNL1       -0.0043
     11 C         140.1732  143.4078  168.3029 C.ar    1  UNL1       -0.0003
     12 C         141.3361  143.2772  169.2413 C.ar    1  UNL1       -0.0000
     13 C         142.6195  142.6642  168.7646 C.ar    1  UNL1       -0.0003
     14 C         142.7399  142.1820  167.3493 C.ar    1  UNL1       -0.0043
     15 C         142.1793  142.5219  159.6534 C.3     1  UNL1        0.1388
     16 C         143.6686  142.4622  159.8210 C.3     1  UNL1        0.0184
     17 C         140.6898  142.5817  159.4858 C.3     1  UNL1        0.0184
     18 C         142.2728  141.5829  158.4874 C.2     1  UNL1        0.2479
     19 O         141.7076  141.9814  157.1563 O.2     1  UNL1       -0.2731
     20 N         142.9314  140.2454  158.6525 N.am    1  UNL1       -0.1883
     21 H         143.3024  139.9839  159.5261 H       1  UNL1        0.1762
     22 S         143.0250  139.3064  157.4865 S.O2    1  UNL1        0.0578
     23 C         143.1184  138.3673  156.3206 C.3     1  UNL1        0.1997
     24 O         141.6672  138.7612  157.8168 O.2     1  UNL1       -0.1544
     25 O         144.3828  139.8516  157.1563 O.2     1  UNL1       -0.1544
     26 C         141.6201  140.5154  165.7132 C.3     1  UNL1        0.0215
     27 C         140.4070  139.6468  165.5582 C.3     1  UNL1        0.0723
     28 C         140.3546  139.6104  165.4148 C.3     1  UNL1        0.0893
     29 C         139.3290  140.6890  165.6020 C.3     1  UNL1        0.0386
     30 C         138.3351  140.9755  164.5156 C.3     1  UNL1        0.0594
     31 C         137.5785  140.9143  163.2219 C.3     1  UNL1        0.0174
     32 C         138.1889  139.8344  162.3786 C.3     1  UNL1        0.0174
     33 C         139.3227  139.2281  163.1511 C.3     1  UNL1        0.0594
     34 C         140.3862  138.8185  164.1413 C.3     1  UNL1        0.0386
     35 N         139.4131  139.9334  164.4720 N.3     1  UNL1       -0.2751
     36 C         143.0502  138.5514  164.8602 C.3     1  UNL1        0.0718
     37 C         142.7354  138.7863  166.3078 C.ar    1  UNL1        0.1207
     38 N         143.3740  138.6548  167.6587 N.ar    1  UNL1       -0.2309
     39 C         142.3816  139.1109  168.6869 C.ar    1  UNL1        0.0983
     40 C         142.4562  139.2032  170.1822 C.ar    1  UNL1        0.0206
     41 C         141.2789  139.7090  170.9620 C.ar    1  UNL1        0.0016
     42 C         140.0270  140.1225  170.2466 C.ar    1  UNL1        0.0016
     43 C         139.9525  140.0302  168.7513 C.ar    1  UNL1        0.0188
     44 C         141.1298  139.5244  167.9715 C.ar    1  UNL1        0.0785
     45 N         141.3484  139.3238  166.5011 N.ar    1  UNL1       -0.3167
@<TRIPOS>BOND
     1    36    37    1
     2    37    38   ar
     3    38    39   ar
     4    39    40   ar
     5    40    41   ar
     6    41    42   ar
     7    42    43   ar
     8    43    44   ar
     9    44    45   ar
    10    45    28    1
    11    28    29    1
    12    29    30    1
    13    30    31    1
    14    31    32    1
    15    32    33    1
    16    33    34    1
    17    33    35    1
    18    35    27    1
    19    27    26    1
    20    26     1    1
    21     1     9    1
    22     9    10   ar
    23    10    11   ar
    24    11    12   ar
    25    12    13   ar
    26    13    14   ar
    27     1     2    1
    28     2     3    1
    29     3     4    1
    30     4     5   am
    31     5     6    2
    32     5    15    1
    33    15    16    1
    34    15    17    1
    35    15    18    1
    36    18    19    2
    37    18    20   am
    38    20    22    1
    39    22    23    1
    40    22    24    2
    41    22    25    2
    42     4     7    1
    43     7     8    1
    44    45    37   ar
    45    34    28    1
    46     8     1    1
    47    44    39   ar
    48    35    30    1
    49    14     9   ar
    50    20    21    1
@<TRIPOS>MOLECULE
*****
 45 50 0 0 0
SMALL
GASTEIGER

@<TRIPOS>ATOM
      1 C         140.4206  142.0982  161.5617 C.3     1  UNL1        0.0235
      2 C         141.4072  141.3088  160.7534 C.3     1  UNL1        0.0256
      3 C         140.9556  140.5789  159.5232 C.3     1  UNL1        0.0937
      4 N         139.5174  140.6385  159.1013 N.am    1  UNL1       -0.2792
      5 C         139.0658  139.9086  157.8711 C.2     1  UNL1        0.2330
      6 O         137.6276  139.9682  157.4493 O.2     1  UNL1       -0.2744
      7 C         138.5308  141.4279  159.9097 C.3     1  UNL1        0.0937
      8 C         138.9824  142.1578  161.1398 C.3     1  UNL1        0.0256
      9 C         139.8666  142.9724  162.6475 C.ar    1  UNL1       -0.0226
     10 C         139.4569  144.3821  162.3396 C.ar    1  UNL1       -0.0043
     11 C         138.9029  145.2563  163.4254 C.ar    1  UNL1       -0.0003
     12 C         138.7586  144.7207  164.8191 C.ar    1  UNL1       -0.0000
     13 C         139.1684  143.3110  165.1270 C.ar    1  UNL1       -0.0003
     14 C         139.7224  142.4369  164.0411 C.ar    1  UNL1       -0.0043
     15 C         140.0525  139.1192  157.0629 C.3     1  UNL1        0.1388
     16 C         139.8384  137.9349  157.9582 C.3     1  UNL1        0.0184
     17 C         140.2664  140.3035  156.1676 C.3     1  UNL1        0.0184
     18 C         141.0392  138.3299  156.2545 C.2     1  UNL1        0.2479
     19 O         141.0829  138.4863  154.7633 O.2     1  UNL1       -0.2731
     20 N         141.9821  137.3841  156.9374 N.am    1  UNL1       -0.1883
     21 H         141.9534  137.2814  157.9161 H       1  UNL1        0.1762
     22 S         142.9688  136.5947  156.1291 S.O2    1  UNL1        0.0578
     23 C         143.9555  135.8053  155.3209 C.3     1  UNL1        0.1997
     24 O         141.9695  135.4843  155.9939 O.2     1  UNL1       -0.1544
     25 O         143.9681  137.7052  156.2645 O.2     1  UNL1       -0.1544
     26 C         141.6664  142.3423  162.3606 C.3     1  UNL1        0.0215
     27 C         142.7651  143.1932  161.7958 C.3     1  UNL1        0.0723
     28 C         142.8198  143.1707  161.6504 C.3     1  UNL1        0.0893
     29 C         141.9110  144.2842  161.2211 C.3     1  UNL1        0.0386
     30 C         141.8690  144.7055  159.7821 C.3     1  UNL1        0.0594
     31 C         142.1458  144.7839  158.3099 C.3     1  UNL1        0.0174
     32 C         143.1709  143.7414  157.9748 C.3     1  UNL1        0.0174
     33 C         143.5277  143.0186  159.2398 C.3     1  UNL1        0.0594
     34 C         143.6865  142.4785  160.6407 C.3     1  UNL1        0.0386
     35 N         142.7230  143.6144  160.3568 N.3     1  UNL1       -0.2751
     36 C         142.6433  145.0993  163.8741 C.3     1  UNL1        0.0718
     37 C         142.7787  143.6610  164.2777 C.ar    1  UNL1        0.1207
     38 N         142.8599  142.8176  165.5155 N.ar    1  UNL1       -0.2309
     39 C         142.9933  141.3847  165.0921 C.ar    1  UNL1        0.0983
     40 C         143.1138  140.1130  165.8783 C.ar    1  UNL1        0.0206
     41 C         143.2355  138.7991  165.1650 C.ar    1  UNL1        0.0016
     42 C         143.2367  138.7570  163.6656 C.ar    1  UNL1        0.0016
     43 C         143.1162  140.0287  162.8794 C.ar    1  UNL1        0.0188
     44 C         142.9945  141.3426  163.5927 C.ar    1  UNL1        0.0785
     45 N         142.8619  142.7494  163.0894 N.ar    1  UNL1       -0.3167
@<TRIPOS>BOND
     1    36    37    1
     2    37    38   ar
     3    38    39   ar
     4    39    40   ar
     5    40    41   ar
     6    41    42   ar
     7    42    43   ar
     8    43    44   ar
     9    44    45   ar
    10    45    28    1
    11    28    29    1
    12    29    30    1
    13    30    31    1
    14    31    32    1
    15    32    33    1
    16    33    34    1
    17    33    35    1
    18    35    27    1
    19    27    26    1
    20    26     1    1
    21     1     9    1
    22     9    10   ar
    23    10    11   ar
    24    11    12   ar
    25    12    13   ar
    26    13    14   ar
    27     1     2    1
    28     2     3    1
    29     3     4    1
    30     4     5   am
    31     5     6    2
    32     5    15    1
    33    15    16    1
    34    15    17    1
    35    15    18    1
    36    18    19    2
    37    18    20   am
    38    20    22    1
    39    22    23    1
    40    22    24    2
    41    22    25    2
    42     4     7    1
    43     7     8    1
    44    45    37   ar
    45    34    28    1
    46     8     1    1
    47    44    39   ar
    48    35    30    1
    49    14     9   ar
    50    20    21    1
@<TRIPOS>MOLECULE
*****
 45 50 0 0 0
SMALL
GASTEIGER

@<TRIPOS>ATOM
      1 C         140.8073  141.9980  161.6094 C.3     1  UNL1        0.0235
      2 C         141.2439  142.5679  162.9265 C.3     1  UNL1        0.0256
      3 C         141.2259  141.7109  164.1574 C.3     1  UNL1        0.0937
      4 N         140.7712  140.2840  164.0713 N.am    1  UNL1       -0.2792
      5 C         140.7532  139.4270  165.3023 C.2     1  UNL1        0.2330
      6 O         140.2986  138.0002  165.2162 O.2     1  UNL1       -0.2744
      7 C         140.3346  139.7142  162.7543 C.3     1  UNL1        0.0937
      8 C         140.3526  140.5711  161.5234 C.3     1  UNL1        0.0256
      9 C         140.4903  141.9135  160.1457 C.ar    1  UNL1       -0.0226
     10 C         139.2490  142.5620  159.6084 C.ar    1  UNL1       -0.0043
     11 C         138.9320  142.4774  158.1447 C.ar    1  UNL1       -0.0003
     12 C         139.8564  141.7443  157.2183 C.ar    1  UNL1       -0.0000
     13 C         141.0977  141.0958  157.7556 C.ar    1  UNL1       -0.0003
     14 C         141.4146  141.1804  159.2194 C.ar    1  UNL1       -0.0043
     15 C         141.1899  139.9969  166.6193 C.3     1  UNL1        0.1388
     16 C         139.7734  140.3888  166.9194 C.3     1  UNL1        0.0184
     17 C         142.6063  139.6050  166.3192 C.3     1  UNL1        0.0184
     18 C         141.6266  140.5668  167.9363 C.2     1  UNL1        0.2479
     19 O         141.8205  139.6628  169.1175 O.2     1  UNL1       -0.2731
     20 N         141.8695  142.0408  168.0722 N.am    1  UNL1       -0.1883
     21 H         141.7423  142.6341  167.2969 H       1  UNL1        0.1762
     22 S         142.3062  142.6108  169.3891 S.O2    1  UNL1        0.0578
     23 C         142.7429  143.1807  170.7061 C.3     1  UNL1        0.1997
     24 O         140.8773  142.6568  169.8430 O.2     1  UNL1       -0.1544
     25 O         143.7352  142.5647  168.9352 O.2     1  UNL1       -0.1544
     26 C         141.1518  143.3955  161.1872 C.3     1  UNL1        0.0215
     27 C         142.5721  143.8726  161.2608 C.3     1  UNL1        0.0723
     28 C         142.6577  143.8569  161.3914 C.3     1  UNL1        0.0893
     29 C         143.2350  142.6198  160.7698 C.3     1  UNL1        0.0386
     30 C         144.2591  141.8147  161.5134 C.3     1  UNL1        0.0594
     31 C         145.2099  141.3467  162.5751 C.3     1  UNL1        0.0174
     32 C         145.1346  142.3104  163.7221 C.3     1  UNL1        0.0174
     33 C         144.1373  143.3739  163.3694 C.3     1  UNL1        0.0594
     34 C         143.1045  144.2888  162.7565 C.3     1  UNL1        0.0386
     35 N         143.5962  143.0675  162.0043 N.3     1  UNL1       -0.2751
     36 C         140.4680  145.2865  162.7543 C.3     1  UNL1        0.0718
     37 C         140.4914  145.4174  161.2602 C.ar    1  UNL1        0.1207
     38 N         139.7237  146.0753  160.1521 N.ar    1  UNL1       -0.2309
     39 C         140.3914  145.7265  158.8549 C.ar    1  UNL1        0.0983
     40 C         140.0770  146.0914  157.4344 C.ar    1  UNL1        0.0206
     41 C         140.9430  145.5828  156.3202 C.ar    1  UNL1        0.0016
     42 C         142.1234  144.7094  156.6266 C.ar    1  UNL1        0.0016
     43 C         142.4377  144.3445  158.0472 C.ar    1  UNL1        0.0188
     44 C         141.5717  144.8530  159.1613 C.ar    1  UNL1        0.0785
     45 N         141.6335  144.6620  160.6478 N.ar    1  UNL1       -0.3167
@<TRIPOS>BOND
     1    36    37    1
     2    37    38   ar
     3    38    39   ar
     4    39    40   ar
     5    40    41   ar
     6    41    42   ar
     7    42    43   ar
     8    43    44   ar
     9    44    45   ar
    10    45    28    1
    11    28    29    1
    12    29    30    1
    13    30    31    1
    14    31    32    1
    15    32    33    1
    16    33    34    1
    17    33    35    1
    18    35    27    1
    19    27    26    1
    20    26     1    1
    21     1     9    1
    22     9    10   ar
    23    10    11   ar
    24    11    12   ar
    25    12    13   ar
    26    13    14   ar
    27     1     2    1
    28     2     3    1
    29     3     4    1
    30     4     5   am
    31     5     6    2
    32     5    15    1
    33    15    16    1
    34    15    17    1
    35    15    18    1
    36    18    19    2
    37    18    20   am
    38    20    22    1
    39    22    23    1
    40    22    24    2
    41    22    25    2
    42     4     7    1
    43     7     8    1
    44    45    37   ar
    45    34    28    1
    46     8     1    1
    47    44    39   ar
    48    35    30    1
    49    14     9   ar
    50    20    21    1
@<TRIPOS>MOLECULE
*****
 45 50 0 0 0
SMALL
GASTEIGER

@<TRIPOS>ATOM
      1 C         140.3121  142.1718  161.8317 C.3     1  UNL1        0.0235
      2 C         141.0793  141.0628  161.1748 C.3     1  UNL1        0.0256
      3 C         141.0205  140.8895  159.6860 C.3     1  UNL1        0.0937
      4 N         140.1945  141.8252  158.8541 N.am    1  UNL1       -0.2792
      5 C         140.1357  141.6519  157.3652 C.2     1  UNL1        0.2330
      6 O         139.3096  142.5876  156.5333 O.2     1  UNL1       -0.2744
      7 C         139.4272  142.9342  159.5109 C.3     1  UNL1        0.0937
      8 C         139.4860  143.1075  160.9997 C.3     1  UNL1        0.0256
      9 C         139.7657  143.0634  162.9072 C.ar    1  UNL1       -0.0226
     10 C         140.6742  144.0186  163.6228 C.ar    1  UNL1       -0.0043
     11 C         140.1279  144.9103  164.6983 C.ar    1  UNL1       -0.0003
     12 C         138.6731  144.8466  165.0581 C.ar    1  UNL1       -0.0000
     13 C         137.7646  143.8913  164.3424 C.ar    1  UNL1       -0.0003
     14 C         138.3110  142.9998  163.2669 C.ar    1  UNL1       -0.0043
     15 C         140.9030  140.5429  156.7085 C.3     1  UNL1        0.1388
     16 C         139.7302  139.6251  156.8880 C.3     1  UNL1        0.0184
     17 C         142.0757  141.4607  156.5290 C.3     1  UNL1        0.0184
     18 C         141.6703  139.4339  156.0517 C.2     1  UNL1        0.2479
     19 O         141.6264  139.2718  154.5611 O.2     1  UNL1       -0.2731
     20 N         142.4817  138.4871  156.8855 N.am    1  UNL1       -0.1883
     21 H         142.5106  138.5936  157.8638 H       1  UNL1        0.1762
     22 S         143.2491  137.3782  156.2288 S.O2    1  UNL1        0.0578
     23 C         144.0166  136.2692  155.5720 C.3     1  UNL1        0.1997
     24 O         144.4153  138.3011  156.0331 O.2     1  UNL1       -0.1544
     25 O         142.0829  136.4553  156.4244 O.2     1  UNL1       -0.1544
     26 C         140.9483  141.5458  163.0371 C.3     1  UNL1        0.0215
     27 C         140.4919  140.1979  163.5114 C.3     1  UNL1        0.0723
     28 C         140.4733  140.0797  163.4098 C.3     1  UNL1        0.0893
     29 C         139.0080  140.4007  163.4274 C.3     1  UNL1        0.0386
     30 C         138.0539  139.5963  162.5952 C.3     1  UNL1        0.0594
     31 C         137.4990  138.5732  161.6490 C.3     1  UNL1        0.0174
     32 C         138.6399  137.7381  161.1482 C.3     1  UNL1        0.0174
     33 C         139.8999  138.2450  161.7848 C.3     1  UNL1        0.0594
     34 C         140.9841  138.9542  162.5599 C.3     1  UNL1        0.0386
     35 N         139.5378  139.3935  162.6792 N.3     1  UNL1       -0.2751
     36 C         139.7373  141.1895  166.0408 C.3     1  UNL1        0.0718
     37 C         141.1361  141.4833  165.5859 C.ar    1  UNL1        0.1207
     38 N         142.3691  142.2000  166.0508 N.ar    1  UNL1       -0.2309
     39 C         143.4223  142.0438  164.9943 C.ar    1  UNL1        0.0983
     40 C         144.8361  142.5370  164.9057 C.ar    1  UNL1        0.0206
     41 C         145.6679  142.2169  163.6993 C.ar    1  UNL1        0.0016
     42 C         145.0859  141.4035  162.5813 C.ar    1  UNL1        0.0016
     43 C         143.6721  140.9103  162.6699 C.ar    1  UNL1        0.0188
     44 C         142.8403  141.2304  163.8763 C.ar    1  UNL1        0.0785
     45 N         141.4274  140.8841  164.2420 N.ar    1  UNL1       -0.3167
@<TRIPOS>BOND
     1    36    37    1
     2    37    38   ar
     3    38    39   ar
     4    39    40   ar
     5    40    41   ar
     6    41    42   ar
     7    42    43   ar
     8    43    44   ar
     9    44    45   ar
    10    45    28    1
    11    28    29    1
    12    29    30    1
    13    30    31    1
    14    31    32    1
    15    32    33    1
    16    33    34    1
    17    33    35    1
    18    35    27    1
    19    27    26    1
    20    26     1    1
    21     1     9    1
    22     9    10   ar
    23    10    11   ar
    24    11    12   ar
    25    12    13   ar
    26    13    14   ar
    27     1     2    1
    28     2     3    1
    29     3     4    1
    30     4     5   am
    31     5     6    2
    32     5    15    1
    33    15    16    1
    34    15    17    1
    35    15    18    1
    36    18    19    2
    37    18    20   am
    38    20    22    1
    39    22    23    1
    40    22    24    2
    41    22    25    2
    42     4     7    1
    43     7     8    1
    44    45    37   ar
    45    34    28    1
    46     8     1    1
    47    44    39   ar
    48    35    30    1
    49    14     9   ar
    50    20    21    1
@<TRIPOS>MOLECULE
*****
 45 50 0 0 0
SMALL
GASTEIGER

@<TRIPOS>ATOM
      1 C         142.1065  141.4069  161.8954 C.3     1  UNL1        0.0235
      2 C         141.0823  140.8531  160.9496 C.3     1  UNL1        0.0256
      3 C         141.5044  140.3335  159.6073 C.3     1  UNL1        0.0937
      4 N         142.9506  140.3677  159.2107 N.am    1  UNL1       -0.2792
      5 C         143.3727  139.8481  157.8684 C.2     1  UNL1        0.2330
      6 O         144.8189  139.8823  157.4718 O.2     1  UNL1       -0.2744
      7 C         143.9748  140.9215  160.1565 C.3     1  UNL1        0.0937
      8 C         143.5527  141.4411  161.4988 C.3     1  UNL1        0.0256
      9 C         142.7000  142.0232  163.1275 C.ar    1  UNL1       -0.0226
     10 C         142.7554  141.2401  164.4056 C.ar    1  UNL1       -0.0043
     11 C         143.3489  141.8564  165.6377 C.ar    1  UNL1       -0.0003
     12 C         143.8870  143.2558  165.5916 C.ar    1  UNL1       -0.0000
     13 C         143.8316  144.0389  164.3134 C.ar    1  UNL1       -0.0003
     14 C         143.2381  143.4225  163.0814 C.ar    1  UNL1       -0.0043
     15 C         142.3485  139.2943  156.9227 C.3     1  UNL1        0.1388
     16 C         142.1463  140.6620  156.3408 C.3     1  UNL1        0.0184
     17 C         142.5508  137.9267  157.5046 C.3     1  UNL1        0.0184
     18 C         141.3244  138.7404  155.9770 C.2     1  UNL1        0.2479
     19 O         141.7610  138.0473  154.7204 O.2     1  UNL1       -0.2731
     20 N         139.8636  138.8797  156.2879 N.am    1  UNL1       -0.1883
     21 H         139.5770  139.3347  157.1126 H       1  UNL1        0.1762
     22 S         138.8393  138.3259  155.3423 S.O2    1  UNL1        0.0578
     23 C         137.8151  137.7720  154.3967 C.3     1  UNL1        0.1997
     24 O         138.8500  137.0267  156.0919 O.2     1  UNL1       -0.1544
     25 O         138.8287  139.6252  154.5928 O.2     1  UNL1       -0.1544
     26 C         140.8664  141.5867  162.7199 C.3     1  UNL1        0.0215
     27 C         139.8433  142.6093  162.3226 C.3     1  UNL1        0.0723
     28 C         139.7964  142.6218  162.1734 C.3     1  UNL1        0.0893
     29 C         140.7559  143.7684  162.0506 C.3     1  UNL1        0.0386
     30 C         140.8908  144.4970  160.7464 C.3     1  UNL1        0.0594
     31 C         140.7009  144.9109  159.3172 C.3     1  UNL1        0.0174
     32 C         139.6710  144.0077  158.7060 C.3     1  UNL1        0.0174
     33 C         139.2244  143.0356  159.7574 C.3     1  UNL1        0.0594
     34 C         138.9721  142.2040  160.9920 C.3     1  UNL1        0.0386
     35 N         139.9783  143.3380  161.0186 N.3     1  UNL1       -0.2751
     36 C         140.0637  143.9728  164.7808 C.3     1  UNL1        0.0718
     37 C         139.7824  142.5008  164.8436 C.ar    1  UNL1        0.1207
     38 N         139.5776  141.4120  165.8549 N.ar    1  UNL1       -0.2309
     39 C         139.3302  140.1315  165.1139 C.ar    1  UNL1        0.0983
     40 C         139.0644  138.7333  165.5872 C.ar    1  UNL1        0.0206
     41 C         138.8504  137.6323  164.5912 C.ar    1  UNL1        0.0016
     42 C         138.9023  137.9296  163.1219 C.ar    1  UNL1        0.0016
     43 C         139.1681  139.3279  162.6486 C.ar    1  UNL1        0.0188
     44 C         139.3821  140.4289  163.6446 C.ar    1  UNL1        0.0785
     45 N         139.6615  141.8931  163.4775 N.ar    1  UNL1       -0.3167
@<TRIPOS>BOND
     1    36    37    1
     2    37    38   ar
     3    38    39   ar
     4    39    40   ar
     5    40    41   ar
     6    41    42   ar
     7    42    43   ar
     8    43    44   ar
     9    44    45   ar
    10    45    28    1
    11    28    29    1
    12    29    30    1
    13    30    31    1
    14    31    32    1
    15    32    33    1
    16    33    34    1
    17    33    35    1
    18    35    27    1
    19    27    26    1
    20    26     1    1
    21     1     9    1
    22     9    10   ar
    23    10    11   ar
    24    11    12   ar
    25    12    13   ar
    26    13    14   ar
    27     1     2    1
    28     2     3    1
    29     3     4    1
    30     4     5   am
    31     5     6    2
    32     5    15    1
    33    15    16    1
    34    15    17    1
    35    15    18    1
    36    18    19    2
    37    18    20   am
    38    20    22    1
    39    22    23    1
    40    22    24    2
    41    22    25    2
    42     4     7    1
    43     7     8    1
    44    45    37   ar
    45    34    28    1
    46     8     1    1
    47    44    39   ar
    48    35    30    1
    49    14     9   ar
    50    20    21    1
