@<TRIPOS>MOLECULE
*****
 26 28 0 0 0
SMALL
GASTEIGER

@<TRIPOS>ATOM
      1 C         138.9564  137.4705  163.6386 C.3     1  UNL1        0.0117
      2 C         138.8881  138.9173  164.0284 C.3     1  UNL1        0.1022
      3 C         139.1141  139.3212  165.4552 C.ar    1  UNL1        0.2379
      4 N         140.1742  140.2609  165.9482 N.ar    1  UNL1       -0.1907
      5 C         140.0349  140.3768  167.4373 C.ar    1  UNL1        0.2041
      6 N         138.8887  139.5085  167.8645 N.ar    1  UNL1       -0.0560
      7 O         138.3196  138.8561  166.6396 O.2     1  UNL1       -0.3370
      8 C         140.8914  141.2138  168.3405 C.ar    1  UNL1        0.0497
      9 C         140.3689  142.5134  168.8772 C.ar    1  UNL1        0.0049
     10 C         141.2254  143.3503  169.7804 C.ar    1  UNL1        0.0115
     11 C         142.6045  142.8878  170.1468 C.ar    1  UNL1        0.0585
     12 CL        143.4610  143.7248  171.0501 Cl      1  UNL1       -0.0822
     13 C         143.1270  141.5882  169.6101 C.ar    1  UNL1        0.0229
     14 C         142.2705  140.7513  168.7069 C.ar    1  UNL1        0.0615
     15 CL        142.7930  139.4516  168.1702 Cl      1  UNL1       -0.0821
     16 C         138.5938  139.9603  162.9913 C.3     1  UNL1        0.1374
     17 N         137.4027  139.8086  162.0920 N.3     1  UNL1       -0.3146
     18 H         136.9099  138.9459  162.3231 H       1  UNL1        0.1192
     19 H         137.7123  139.7736  161.1208 H       1  UNL1        0.1192
     20 C         139.4902  141.1549  162.8535 C.2     1  UNL1        0.2402
     21 O         140.7765  141.0431  162.0898 O.2     1  UNL1       -0.2734
     22 N         139.1006  142.4613  163.4791 N.am    1  UNL1       -0.2785
     23 C         137.8520  142.7234  164.2680 C.3     1  UNL1        0.0935
     24 C         137.8708  144.1590  164.7021 C.3     1  UNL1        0.0233
     25 C         139.1310  144.7842  164.1817 C.3     1  UNL1        0.0233
     26 C         139.8911  143.7350  163.4258 C.3     1  UNL1        0.0935
@<TRIPOS>BOND
     1     2     1    1
     2     2     3    1
     3     3     4   ar
     4     4     5   ar
     5     5     8    1
     6     8     9   ar
     7     9    10   ar
     8    10    11   ar
     9    11    12    1
    10    11    13   ar
    11    13    14   ar
    12    14    15    1
    13     5     6   ar
    14     6     7   ar
    15     2    16    1
    16    16    17    1
    17    16    20    1
    18    20    21    2
    19    20    22   am
    20    22    23    1
    21    23    24    1
    22    24    25    1
    23    25    26    1
    24     7     3   ar
    25    26    22    1
    26    14     8   ar
    27    17    18    1
    28    17    19    1
@<TRIPOS>MOLECULE
*****
 26 28 0 0 0
SMALL
GASTEIGER

@<TRIPOS>ATOM
      1 C         144.4036  139.9490  162.6794 C.3     1  UNL1        0.0117
      2 C         143.4118  139.0478  163.3534 C.3     1  UNL1        0.1022
      3 C         143.1608  139.1775  164.8266 C.ar    1  UNL1        0.2379
      4 N         142.2728  140.1922  165.4837 N.ar    1  UNL1       -0.1907
      5 C         142.3168  139.9570  166.9644 C.ar    1  UNL1        0.2041
      6 N         143.2320  138.7969  167.2225 N.ar    1  UNL1       -0.0560
      7 O         143.7537  138.3151  165.9012 O.2     1  UNL1       -0.3370
      8 C         141.5757  140.7437  168.0046 C.ar    1  UNL1        0.0497
      9 C         140.2665  140.2392  168.5350 C.ar    1  UNL1        0.0049
     10 C         139.5254  141.0260  169.5751 C.ar    1  UNL1        0.0115
     11 C         140.0936  142.3172  170.0848 C.ar    1  UNL1        0.0585
     12 CL        139.3525  143.1040  171.1250 Cl      1  UNL1       -0.0822
     13 C         141.4029  142.8217  169.5544 C.ar    1  UNL1        0.0229
     14 C         142.1439  142.0350  168.5143 C.ar    1  UNL1        0.0615
     15 CL        143.4532  142.5395  167.9839 Cl      1  UNL1       -0.0821
     16 C         142.6712  138.0170  162.5542 C.3     1  UNL1        0.1374
     17 N         143.3016  137.4219  161.3300 N.3     1  UNL1       -0.3146
     18 H         144.2261  137.8298  161.1911 H       1  UNL1        0.1192
     19 H         142.7176  137.6184  160.5171 H       1  UNL1        0.1192
     20 C         141.3002  137.5813  162.9789 C.2     1  UNL1        0.2402
     21 O         141.1397  136.5986  164.1009 O.2     1  UNL1       -0.2734
     22 N         140.0898  138.1281  162.2819 N.am    1  UNL1       -0.2785
     23 C         140.0937  139.1121  161.1498 C.3     1  UNL1        0.0935
     24 C         138.6693  139.3791  160.7629 C.3     1  UNL1        0.0233
     25 C         137.7851  138.5602  161.6558 C.3     1  UNL1        0.0233
     26 C         138.6630  137.7870  162.5947 C.3     1  UNL1        0.0935
@<TRIPOS>BOND
     1     2     1    1
     2     2     3    1
     3     3     4   ar
     4     4     5   ar
     5     5     8    1
     6     8     9   ar
     7     9    10   ar
     8    10    11   ar
     9    11    12    1
    10    11    13   ar
    11    13    14   ar
    12    14    15    1
    13     5     6   ar
    14     6     7   ar
    15     2    16    1
    16    16    17    1
    17    16    20    1
    18    20    21    2
    19    20    22   am
    20    22    23    1
    21    23    24    1
    22    24    25    1
    23    25    26    1
    24     7     3   ar
    25    26    22    1
    26    14     8   ar
    27    17    18    1
    28    17    19    1
@<TRIPOS>MOLECULE
*****
 26 28 0 0 0
SMALL
GASTEIGER

@<TRIPOS>ATOM
      1 C         142.6013  142.4820  159.5736 C.3     1  UNL1        0.0117
      2 C         142.2004  143.1596  160.8504 C.3     1  UNL1        0.1022
      3 C         142.8711  142.7878  162.1395 C.ar    1  UNL1        0.2379
      4 N         142.2442  142.0327  163.2739 N.ar    1  UNL1       -0.1907
      5 C         143.2721  141.8841  164.3560 C.ar    1  UNL1        0.2041
      6 N         144.5345  142.5473  163.8905 N.ar    1  UNL1       -0.0560
      7 O         144.2867  143.1058  162.5206 O.2     1  UNL1       -0.3370
      8 C         143.0728  141.1935  165.6727 C.ar    1  UNL1        0.0497
      9 C         142.8009  141.9989  166.9085 C.ar    1  UNL1        0.0049
     10 C         142.6016  141.3083  168.2250 C.ar    1  UNL1        0.0115
     11 C         142.6742  139.8122  168.3057 C.ar    1  UNL1        0.0585
     12 CL        142.4749  139.1216  169.6223 Cl      1  UNL1       -0.0822
     13 C         142.9462  139.0068  167.0699 C.ar    1  UNL1        0.0229
     14 C         143.1454  139.6974  165.7534 C.ar    1  UNL1        0.0615
     15 CL        143.4174  138.8920  164.5174 Cl      1  UNL1       -0.0821
     16 C         141.1287  144.2090  160.8379 C.3     1  UNL1        0.1374
     17 N         141.4669  145.6220  160.4646 N.3     1  UNL1       -0.3146
     18 H         142.4621  145.6883  160.2511 H       1  UNL1        0.1192
     19 H         141.2442  146.2420  161.2434 H       1  UNL1        0.1192
     20 C         139.7189  143.8456  161.1987 C.2     1  UNL1        0.2402
     21 O         138.8150  143.2349  160.1690 O.2     1  UNL1       -0.2734
     22 N         139.2128  144.0929  162.5889 N.am    1  UNL1       -0.2785
     23 C         139.9961  144.6932  163.7185 C.3     1  UNL1        0.0935
     24 C         139.1021  144.7545  164.9213 C.3     1  UNL1        0.0233
     25 C         137.7663  144.1922  164.5352 C.3     1  UNL1        0.0233
     26 C         137.8347  143.7832  163.0936 C.3     1  UNL1        0.0935
@<TRIPOS>BOND
     1     2     1    1
     2     2     3    1
     3     3     4   ar
     4     4     5   ar
     5     5     8    1
     6     8     9   ar
     7     9    10   ar
     8    10    11   ar
     9    11    12    1
    10    11    13   ar
    11    13    14   ar
    12    14    15    1
    13     5     6   ar
    14     6     7   ar
    15     2    16    1
    16    16    17    1
    17    16    20    1
    18    20    21    2
    19    20    22   am
    20    22    23    1
    21    23    24    1
    22    24    25    1
    23    25    26    1
    24     7     3   ar
    25    26    22    1
    26    14     8   ar
    27    17    18    1
    28    17    19    1
@<TRIPOS>MOLECULE
*****
 26 28 0 0 0
SMALL
GASTEIGER

@<TRIPOS>ATOM
      1 C         138.4634  138.2581  162.4873 C.3     1  UNL1        0.0117
      2 C         139.7347  138.5561  163.2256 C.3     1  UNL1        0.1022
      3 C         139.6822  139.0426  164.6435 C.ar    1  UNL1        0.2379
      4 N         140.7022  139.9136  165.3151 N.ar    1  UNL1       -0.1907
      5 C         140.2508  140.1529  166.7254 C.ar    1  UNL1        0.2041
      6 N         138.9519  139.4298  166.9254 N.ar    1  UNL1       -0.0560
      7 O         138.6004  138.7436  165.6388 O.2     1  UNL1       -0.3370
      8 C         140.9718  140.9716  167.7550 C.ar    1  UNL1        0.0497
      9 C         140.3856  142.2693  168.2263 C.ar    1  UNL1        0.0049
     10 C         141.1066  143.0879  169.2559 C.ar    1  UNL1        0.0115
     11 C         142.4138  142.6088  169.8141 C.ar    1  UNL1        0.0585
     12 CL        143.1348  143.4275  170.8437 Cl      1  UNL1       -0.0822
     13 C         143.0000  141.3110  169.3428 C.ar    1  UNL1        0.0229
     14 C         142.2790  140.4924  168.3133 C.ar    1  UNL1        0.0615
     15 CL        142.8652  139.1946  167.8419 Cl      1  UNL1       -0.0821
     16 C         141.0585  138.3674  162.5459 C.3     1  UNL1        0.1374
     17 N         141.6054  136.9859  162.3394 N.3     1  UNL1       -0.3146
     18 H         140.9518  136.3011  162.7193 H       1  UNL1        0.1192
     19 H         142.5028  136.9006  162.8167 H       1  UNL1        0.1192
     20 C         141.8354  139.5600  162.0727 C.2     1  UNL1        0.2402
     21 O         141.3085  140.3998  160.9470 O.2     1  UNL1       -0.2734
     22 N         143.1392  139.9128  162.7251 N.am    1  UNL1       -0.2785
     23 C         143.7888  139.1709  163.8554 C.3     1  UNL1        0.0935
     24 C         145.0733  139.8691  164.1906 C.3     1  UNL1        0.0233
     25 C         145.2177  141.0425  163.2676 C.3     1  UNL1        0.0233
     26 C         144.0224  141.0696  162.3618 C.3     1  UNL1        0.0935
@<TRIPOS>BOND
     1     2     1    1
     2     2     3    1
     3     3     4   ar
     4     4     5   ar
     5     5     8    1
     6     8     9   ar
     7     9    10   ar
     8    10    11   ar
     9    11    12    1
    10    11    13   ar
    11    13    14   ar
    12    14    15    1
    13     5     6   ar
    14     6     7   ar
    15     2    16    1
    16    16    17    1
    17    16    20    1
    18    20    21    2
    19    20    22   am
    20    22    23    1
    21    23    24    1
    22    24    25    1
    23    25    26    1
    24     7     3   ar
    25    26    22    1
    26    14     8   ar
    27    17    18    1
    28    17    19    1
@<TRIPOS>MOLECULE
*****
 26 28 0 0 0
SMALL
GASTEIGER

@<TRIPOS>ATOM
      1 C         138.5962  139.3506  160.9783 C.3     1  UNL1        0.0117
      2 C         138.5373  140.1126  162.2690 C.3     1  UNL1        0.1022
      3 C         139.1829  139.5517  163.5013 C.ar    1  UNL1        0.2379
      4 N         139.4684  140.3039  164.7673 N.ar    1  UNL1       -0.1907
      5 C         140.1184  139.3573  165.7324 C.ar    1  UNL1        0.2041
      6 N         140.2346  138.0200  165.0628 N.ar    1  UNL1       -0.0560
      7 O         139.6565  138.1401  163.6840 O.2     1  UNL1       -0.3370
      8 C         140.5725  139.6895  167.1229 C.ar    1  UNL1        0.0497
      9 C         139.5628  140.0056  168.1861 C.ar    1  UNL1        0.0049
     10 C         140.0169  140.3378  169.5766 C.ar    1  UNL1        0.0115
     11 C         141.4807  140.3540  169.9038 C.ar    1  UNL1        0.0585
     12 CL        141.9348  140.6863  171.2943 Cl      1  UNL1       -0.0822
     13 C         142.4904  140.0379  168.8405 C.ar    1  UNL1        0.0229
     14 C         142.0363  139.7057  167.4501 C.ar    1  UNL1        0.0615
     15 CL        143.0460  139.3896  166.3867 Cl      1  UNL1       -0.0821
     16 C         137.8326  141.4355  162.3273 C.3     1  UNL1        0.1374
     17 N         136.6122  141.5980  163.1843 N.3     1  UNL1       -0.3146
     18 H         136.4055  140.7157  163.6525 H       1  UNL1        0.1192
     19 H         135.8201  141.8668  162.6005 H       1  UNL1        0.1192
     20 C         138.3482  142.5958  161.5289 C.2     1  UNL1        0.2402
     21 O         137.9857  142.7288  160.0794 O.2     1  UNL1       -0.2734
     22 N         139.2263  143.6231  162.1797 N.am    1  UNL1       -0.2785
     23 C         139.6709  143.6229  163.6123 C.3     1  UNL1        0.0935
     24 C         140.5332  144.8306  163.8302 C.3     1  UNL1        0.0233
     25 C         140.6216  145.5774  162.5324 C.3     1  UNL1        0.0233
     26 C         139.8139  144.8311  161.5123 C.3     1  UNL1        0.0935
@<TRIPOS>BOND
     1     2     1    1
     2     2     3    1
     3     3     4   ar
     4     4     5   ar
     5     5     8    1
     6     8     9   ar
     7     9    10   ar
     8    10    11   ar
     9    11    12    1
    10    11    13   ar
    11    13    14   ar
    12    14    15    1
    13     5     6   ar
    14     6     7   ar
    15     2    16    1
    16    16    17    1
    17    16    20    1
    18    20    21    2
    19    20    22   am
    20    22    23    1
    21    23    24    1
    22    24    25    1
    23    25    26    1
    24     7     3   ar
    25    26    22    1
    26    14     8   ar
    27    17    18    1
    28    17    19    1
@<TRIPOS>MOLECULE
*****
 26 28 0 0 0
SMALL
GASTEIGER

@<TRIPOS>ATOM
      1 C         143.2021  142.8683  160.1280 C.3     1  UNL1        0.0117
      2 C         142.1107  143.0537  161.1401 C.3     1  UNL1        0.1022
      3 C         141.9963  142.1108  162.3011 C.ar    1  UNL1        0.2379
      4 N         140.7430  141.4272  162.7616 N.ar    1  UNL1       -0.1907
      5 C         141.0873  140.5798  163.9505 C.ar    1  UNL1        0.2041
      6 N         142.5533  140.7397  164.2247 N.ar    1  UNL1       -0.0560
      7 O         143.1152  141.6859  163.2054 O.2     1  UNL1       -0.3370
      8 C         140.1331  139.7230  164.7286 C.ar    1  UNL1        0.0497
      9 C         139.4702  140.2661  165.9597 C.ar    1  UNL1        0.0049
     10 C         138.5161  139.4092  166.7377 C.ar    1  UNL1        0.0115
     11 C         138.2247  138.0093  166.2845 C.ar    1  UNL1        0.0585
     12 CL        137.2705  137.1525  167.0626 Cl      1  UNL1       -0.0822
     13 C         138.8875  137.4662  165.0534 C.ar    1  UNL1        0.0229
     14 C         139.8417  138.3231  164.2754 C.ar    1  UNL1        0.0615
     15 CL        140.5046  137.7800  163.0443 Cl      1  UNL1       -0.0821
     16 C         141.1336  144.1821  160.9913 C.3     1  UNL1        0.1374
     17 N         141.6072  145.5281  160.5284 N.3     1  UNL1       -0.3146
     18 H         142.6131  145.4960  160.3625 H       1  UNL1        0.1192
     19 H         141.4028  146.2251  161.2445 H       1  UNL1        0.1192
     20 C         139.6831  143.9645  161.3051 C.2     1  UNL1        0.2402
     21 O         138.7465  143.4919  160.2330 O.2     1  UNL1       -0.2734
     22 N         139.1691  144.2196  162.6910 N.am    1  UNL1       -0.2785
     23 C         139.9820  144.6920  163.8599 C.3     1  UNL1        0.0935
     24 C         139.0672  144.8114  165.0426 C.3     1  UNL1        0.0233
     25 C         137.6891  144.4130  164.6048 C.3     1  UNL1        0.0233
     26 C         137.7520  144.0472  163.1515 C.3     1  UNL1        0.0935
@<TRIPOS>BOND
     1     2     1    1
     2     2     3    1
     3     3     4   ar
     4     4     5   ar
     5     5     8    1
     6     8     9   ar
     7     9    10   ar
     8    10    11   ar
     9    11    12    1
    10    11    13   ar
    11    13    14   ar
    12    14    15    1
    13     5     6   ar
    14     6     7   ar
    15     2    16    1
    16    16    17    1
    17    16    20    1
    18    20    21    2
    19    20    22   am
    20    22    23    1
    21    23    24    1
    22    24    25    1
    23    25    26    1
    24     7     3   ar
    25    26    22    1
    26    14     8   ar
    27    17    18    1
    28    17    19    1
@<TRIPOS>MOLECULE
*****
 26 28 0 0 0
SMALL
GASTEIGER

@<TRIPOS>ATOM
      1 C         143.3734  142.8057  160.2502 C.3     1  UNL1        0.0117
      2 C         142.1743  142.8765  161.1485 C.3     1  UNL1        0.1022
      3 C         141.9280  141.7942  162.1574 C.ar    1  UNL1        0.2379
      4 N         141.9591  141.9550  163.6484 N.ar    1  UNL1       -0.1907
      5 C         141.6577  140.6212  164.2649 C.ar    1  UNL1        0.2041
      6 N         141.4402  139.6360  163.1549 N.ar    1  UNL1       -0.0560
      7 O         141.6072  140.3609  161.8524 O.2     1  UNL1       -0.3370
      8 C         141.5862  140.3246  165.7336 C.ar    1  UNL1        0.0497
      9 C         142.7817  139.7626  166.4443 C.ar    1  UNL1        0.0049
     10 C         142.7102  139.4661  167.9129 C.ar    1  UNL1        0.0115
     11 C         141.4432  139.7314  168.6709 C.ar    1  UNL1        0.0585
     12 CL        141.3718  139.4348  170.1396 Cl      1  UNL1       -0.0822
     13 C         140.2478  140.2934  167.9602 C.ar    1  UNL1        0.0229
     14 C         140.3193  140.5900  166.4916 C.ar    1  UNL1        0.0615
     15 CL        139.1238  141.1519  165.7808 Cl      1  UNL1       -0.0821
     16 C         141.2215  144.0297  161.0380 C.3     1  UNL1        0.1374
     17 N         141.7265  145.3841  160.6366 N.3     1  UNL1       -0.3146
     18 H         142.7332  145.3385  160.4789 H       1  UNL1        0.1192
     19 H         141.5287  146.0546  161.3794 H       1  UNL1        0.1192
     20 C         139.7638  143.8289  161.3287 C.2     1  UNL1        0.2402
     21 O         138.8421  143.3506  160.2461 O.2     1  UNL1       -0.2734
     22 N         139.2277  144.1061  162.7019 N.am    1  UNL1       -0.2785
     23 C         140.0239  144.5863  163.8789 C.3     1  UNL1        0.0935
     24 C         139.0895  144.7288  165.0436 C.3     1  UNL1        0.0233
     25 C         137.7158  144.3368  164.5865 C.3     1  UNL1        0.0233
     26 C         137.8011  143.9519  163.1392 C.3     1  UNL1        0.0935
@<TRIPOS>BOND
     1     2     1    1
     2     2     3    1
     3     3     4   ar
     4     4     5   ar
     5     5     8    1
     6     8     9   ar
     7     9    10   ar
     8    10    11   ar
     9    11    12    1
    10    11    13   ar
    11    13    14   ar
    12    14    15    1
    13     5     6   ar
    14     6     7   ar
    15     2    16    1
    16    16    17    1
    17    16    20    1
    18    20    21    2
    19    20    22   am
    20    22    23    1
    21    23    24    1
    22    24    25    1
    23    25    26    1
    24     7     3   ar
    25    26    22    1
    26    14     8   ar
    27    17    18    1
    28    17    19    1
@<TRIPOS>MOLECULE
*****
 26 28 0 0 0
SMALL
GASTEIGER

@<TRIPOS>ATOM
      1 C         140.3811  138.9044  159.5053 C.3     1  UNL1        0.0117
      2 C         141.4439  139.0478  160.5541 C.3     1  UNL1        0.1022
      3 C         141.1795  138.5887  161.9574 C.ar    1  UNL1        0.2379
      4 N         140.7364  139.4542  163.0995 N.ar    1  UNL1       -0.1907
      5 C         140.5949  138.5839  164.3130 C.ar    1  UNL1        0.2041
      6 N         140.9506  137.1804  163.9208 N.ar    1  UNL1       -0.0560
      7 O         141.3119  137.1834  162.4650 O.2     1  UNL1       -0.3370
      8 C         140.1720  139.0374  165.6788 C.ar    1  UNL1        0.0497
      9 C         138.7513  138.8536  166.1236 C.ar    1  UNL1        0.0049
     10 C         138.3285  139.3071  167.4895 C.ar    1  UNL1        0.0115
     11 C         139.3262  139.9444  168.4105 C.ar    1  UNL1        0.0585
     12 CL        138.9033  140.3979  169.7763 Cl      1  UNL1       -0.0822
     13 C         140.7469  140.1282  167.9657 C.ar    1  UNL1        0.0229
     14 C         141.1698  139.6747  166.5999 C.ar    1  UNL1        0.0615
     15 CL        142.5905  139.8585  166.1550 Cl      1  UNL1       -0.0821
     16 C         142.7710  139.6503  160.1995 C.3     1  UNL1        0.1374
     17 N         143.7140  138.9098  159.2979 N.3     1  UNL1       -0.3146
     18 H         143.2942  138.0220  159.0224 H       1  UNL1        0.1192
     19 H         144.5888  138.7336  159.7919 H       1  UNL1        0.1192
     20 C         143.1552  140.9931  160.7463 C.2     1  UNL1        0.2402
     21 O         142.7034  142.2432  160.0511 O.2     1  UNL1       -0.2734
     22 N         143.9913  141.0860  161.9882 N.am    1  UNL1       -0.2785
     23 C         144.5143  139.9294  162.7875 C.3     1  UNL1        0.0935
     24 C         145.2974  140.4804  163.9421 C.3     1  UNL1        0.0233
     25 C         145.2584  141.9773  163.8565 C.3     1  UNL1        0.0233
     26 C         144.4512  142.3517  162.6489 C.3     1  UNL1        0.0935
@<TRIPOS>BOND
     1     2     1    1
     2     2     3    1
     3     3     4   ar
     4     4     5   ar
     5     5     8    1
     6     8     9   ar
     7     9    10   ar
     8    10    11   ar
     9    11    12    1
    10    11    13   ar
    11    13    14   ar
    12    14    15    1
    13     5     6   ar
    14     6     7   ar
    15     2    16    1
    16    16    17    1
    17    16    20    1
    18    20    21    2
    19    20    22   am
    20    22    23    1
    21    23    24    1
    22    24    25    1
    23    25    26    1
    24     7     3   ar
    25    26    22    1
    26    14     8   ar
    27    17    18    1
    28    17    19    1
@<TRIPOS>MOLECULE
*****
 26 28 0 0 0
SMALL
GASTEIGER

@<TRIPOS>ATOM
      1 C         137.7130  137.0165  166.1325 C.3     1  UNL1        0.0117
      2 C         138.2407  138.4178  166.0435 C.3     1  UNL1        0.1022
      3 C         138.6736  139.1366  167.2868 C.ar    1  UNL1        0.2379
      4 N         139.8898  140.0035  167.4258 N.ar    1  UNL1       -0.1907
      5 C         139.9342  140.5174  168.8343 C.ar    1  UNL1        0.2041
      6 N         138.7454  139.9680  169.5659 N.ar    1  UNL1       -0.0560
      7 O         137.9663  139.1146  168.6095 O.2     1  UNL1       -0.3370
      8 C         140.9832  141.4219  169.4103 C.ar    1  UNL1        0.0497
      9 C         140.6160  142.8047  169.8606 C.ar    1  UNL1        0.0049
     10 C         141.6650  143.7091  170.4365 C.ar    1  UNL1        0.0115
     11 C         143.0811  143.2306  170.5621 C.ar    1  UNL1        0.0585
     12 CL        144.1301  144.1351  171.1381 Cl      1  UNL1       -0.0822
     13 C         143.4482  141.8478  170.1118 C.ar    1  UNL1        0.0229
     14 C         142.3993  140.9434  169.5359 C.ar    1  UNL1        0.0615
     15 CL        142.7664  139.5604  169.0855 Cl      1  UNL1       -0.0821
     16 C         138.3355  139.1002  164.7111 C.3     1  UNL1        0.1374
     17 N         137.8087  140.4948  164.5436 N.3     1  UNL1       -0.3146
     18 H         137.4242  140.8217  165.4300 H       1  UNL1        0.1192
     19 H         137.0766  140.4987  163.8333 H       1  UNL1        0.1192
     20 C         138.9569  138.3884  163.5462 C.2     1  UNL1        0.2402
     21 O         138.0891  137.6616  162.5618 O.2     1  UNL1       -0.2734
     22 N         140.4459  138.4032  163.3657 N.am    1  UNL1       -0.2785
     23 C         141.4362  139.0839  164.2635 C.3     1  UNL1        0.0935
     24 C         142.8083  138.8413  163.7083 C.3     1  UNL1        0.0233
     25 C         142.6662  138.0107  162.4674 C.3     1  UNL1        0.0233
     26 C         141.2061  137.7399  162.2557 C.3     1  UNL1        0.0935
@<TRIPOS>BOND
     1     2     1    1
     2     2     3    1
     3     3     4   ar
     4     4     5   ar
     5     5     8    1
     6     8     9   ar
     7     9    10   ar
     8    10    11   ar
     9    11    12    1
    10    11    13   ar
    11    13    14   ar
    12    14    15    1
    13     5     6   ar
    14     6     7   ar
    15     2    16    1
    16    16    17    1
    17    16    20    1
    18    20    21    2
    19    20    22   am
    20    22    23    1
    21    23    24    1
    22    24    25    1
    23    25    26    1
    24     7     3   ar
    25    26    22    1
    26    14     8   ar
    27    17    18    1
    28    17    19    1
