@<TRIPOS>MOLECULE
*****
 37 41 0 0 0
SMALL
GASTEIGER

@<TRIPOS>ATOM
      1 N         140.5554  143.6447  161.8514 N.3     1  UNL1       -0.2750
      2 C         141.2122  144.8870  161.3268 C.3     1  UNL1        0.0737
      3 C         141.4112  145.0640  159.8507 C.3     1  UNL1        0.0374
      4 C         140.9534  143.9987  158.8991 C.3     1  UNL1        0.0800
      5 C         140.2966  142.7564  159.4237 C.3     1  UNL1        0.0374
      6 C         140.0975  142.5794  160.8998 C.3     1  UNL1        0.0737
      7 C         141.5167  140.6640  166.6506 C.2     1  UNL1        0.2542
      8 O         142.3774  139.4706  166.3588 O.2     1  UNL1       -0.2697
      9 N         141.1299  141.5985  165.5429 N.am    1  UNL1       -0.2758
     10 C         141.6038  141.3398  164.1434 C.3     1  UNL1        0.0951
     11 C         141.2171  142.2744  163.0358 C.3     1  UNL1        0.0362
     12 C         140.3564  143.4677  163.3275 C.3     1  UNL1        0.0487
     13 C         139.5648  144.7225  163.1067 C.3     1  UNL1        0.0161
     14 C         139.8824  143.7265  164.7269 C.3     1  UNL1        0.0362
     15 C         140.2692  142.7919  165.8347 C.3     1  UNL1        0.0951
     16 C         138.8909  139.5462  167.5759 C.3     1  UNL1        0.0316
     17 C         139.7299  140.3639  168.5127 C.ar    1  UNL1       -0.0058
     18 C         139.2561  140.6226  169.9121 C.ar    1  UNL1        0.0730
     19 C         140.0951  141.4402  170.8489 C.ar    1  UNL1        0.3010
     20 N         141.4079  141.9991  170.3863 N.ar    1  UNL1       -0.1606
     21 O         142.2469  142.8167  171.3231 O.co2   1  UNL1       -0.6190
     22 C         141.8818  141.7403  168.9869 C.ar    1  UNL1        0.2180
     23 C         143.1947  142.2992  168.5242 C.3     1  UNL1        0.1093
     24 C         141.0428  140.9227  168.0501 C.ar    1  UNL1        0.1099
     25 N         141.1524  144.1757  157.4229 N.pl3   1  UNL1       -0.2872
     26 C         140.1091  144.8764  156.6041 C.ar    1  UNL1        0.0516
     27 C         138.9932  144.0917  155.9804 C.ar    1  UNL1        0.0148
     28 C         137.9499  144.7924  155.1616 C.ar    1  UNL1        0.0013
     29 C         138.0225  146.2778  154.9664 C.ar    1  UNL1        0.0001
     30 C         139.1384  147.0626  155.5900 C.ar    1  UNL1        0.0013
     31 C         140.1817  146.3619  156.4089 C.ar    1  UNL1        0.0148
     32 C         142.3948  143.6519  156.7655 C.ar    1  UNL1        0.0710
     33 C         142.6061  143.8521  155.2940 C.ar    1  UNL1        0.0180
     34 C         143.8485  143.3283  154.6366 C.ar    1  UNL1        0.0220
     35 C         144.8795  142.6043  155.4507 C.ar    1  UNL1        0.0990
     36 N         144.6682  142.4041  156.9222 N.ar    1  UNL1       -0.2410
     37 C         143.4258  142.9279  157.5796 C.ar    1  UNL1        0.1136
@<TRIPOS>UNITY_ATOM_ATTR
20 1
charge 1
21 1
charge -1
@<TRIPOS>BOND
     1    16    17    1
     2    17    18   ar
     3    18    19   ar
     4    19    20   ar
     5    20    21    1
     6    20    22   ar
     7    22    23    1
     8    22    24   ar
     9    24     7    1
    10     7     8    2
    11     7     9   am
    12     9    10    1
    13    10    11    1
    14    11    12    1
    15    12    13    1
    16    12     1    1
    17     1     2    1
    18     2     3    1
    19     3     4    1
    20     4    25    1
    21    25    26    1
    22    26    27   ar
    23    27    28   ar
    24    28    29   ar
    25    29    30   ar
    26    30    31   ar
    27    25    32    1
    28    32    33   ar
    29    33    34   ar
    30    34    35   ar
    31    35    36   ar
    32    36    37   ar
    33     4     5    1
    34     5     6    1
    35    12    14    1
    36    14    15    1
    37    24    17   ar
    38    15     9    1
    39     6     1    1
    40    31    26   ar
    41    37    32   ar
@<TRIPOS>MOLECULE
*****
 37 41 0 0 0
SMALL
GASTEIGER

@<TRIPOS>ATOM
      1 N         140.5847  143.5824  161.9009 N.3     1  UNL1       -0.2750
      2 C         141.1160  144.8793  161.3664 C.3     1  UNL1        0.0737
      3 C         141.3168  145.0561  159.8905 C.3     1  UNL1        0.0374
      4 C         140.9864  143.9360  158.9491 C.3     1  UNL1        0.0800
      5 C         140.4552  142.6391  159.4836 C.3     1  UNL1        0.0374
      6 C         140.2543  142.4622  160.9595 C.3     1  UNL1        0.0737
      7 C         141.6869  140.7073  166.7342 C.2     1  UNL1        0.2542
      8 O         142.6230  139.5677  166.4602 O.2     1  UNL1       -0.2697
      9 N         141.2526  141.6067  165.6151 N.am    1  UNL1       -0.2758
     10 C         141.7543  141.3665  164.2220 C.3     1  UNL1        0.0951
     11 C         141.3199  142.2659  163.1029 C.3     1  UNL1        0.0362
     12 C         140.3838  143.4055  163.3768 C.3     1  UNL1        0.0487
     13 C         139.5175  144.6065  163.1382 C.3     1  UNL1        0.0161
     14 C         139.8821  143.6457  164.7698 C.3     1  UNL1        0.0362
     15 C         140.3165  142.7463  165.8890 C.3     1  UNL1        0.0951
     16 C         143.3087  142.3501  168.6502 C.3     1  UNL1        0.0316
     17 C         141.9961  141.7689  169.0853 C.ar    1  UNL1       -0.0058
     18 C         141.4943  142.0091  170.4783 C.ar    1  UNL1        0.0730
     19 C         140.1817  141.4278  170.9133 C.ar    1  UNL1        0.3010
     20 N         139.3708  140.6065  169.9553 N.ar    1  UNL1       -0.1606
     21 O         138.0582  140.0252  170.3903 O.co2   1  UNL1       -0.6190
     22 C         139.8726  140.3663  168.5623 C.ar    1  UNL1        0.2180
     23 C         139.0617  139.5449  167.6042 C.3     1  UNL1        0.1093
     24 C         141.1852  140.9475  168.1273 C.ar    1  UNL1        0.1099
     25 N         141.1873  144.1129  157.4731 N.pl3   1  UNL1       -0.2872
     26 C         140.1570  144.8358  156.6572 C.ar    1  UNL1        0.0516
     27 C         138.9772  144.0901  156.1076 C.ar    1  UNL1        0.0148
     28 C         137.9468  144.8130  155.2917 C.ar    1  UNL1        0.0013
     29 C         138.0961  146.2816  155.0254 C.ar    1  UNL1        0.0001
     30 C         139.2759  147.0273  155.5750 C.ar    1  UNL1        0.0013
     31 C         140.3063  146.3044  156.3909 C.ar    1  UNL1        0.0148
     32 C         142.4186  143.5668  156.8131 C.ar    1  UNL1        0.0710
     33 C         142.5387  143.5846  155.3180 C.ar    1  UNL1        0.0180
     34 C         143.7700  143.0385  154.6579 C.ar    1  UNL1        0.0220
     35 C         144.8812  142.4746  155.4929 C.ar    1  UNL1        0.0990
     36 N         144.7611  142.4568  156.9879 N.ar    1  UNL1       -0.2410
     37 C         143.5298  143.0029  157.6480 C.ar    1  UNL1        0.1136
@<TRIPOS>UNITY_ATOM_ATTR
20 1
charge 1
21 1
charge -1
@<TRIPOS>BOND
     1    16    17    1
     2    17    18   ar
     3    18    19   ar
     4    19    20   ar
     5    20    21    1
     6    20    22   ar
     7    22    23    1
     8    22    24   ar
     9    24     7    1
    10     7     8    2
    11     7     9   am
    12     9    10    1
    13    10    11    1
    14    11    12    1
    15    12    13    1
    16    12     1    1
    17     1     2    1
    18     2     3    1
    19     3     4    1
    20     4    25    1
    21    25    26    1
    22    26    27   ar
    23    27    28   ar
    24    28    29   ar
    25    29    30   ar
    26    30    31   ar
    27    25    32    1
    28    32    33   ar
    29    33    34   ar
    30    34    35   ar
    31    35    36   ar
    32    36    37   ar
    33     4     5    1
    34     5     6    1
    35    12    14    1
    36    14    15    1
    37    24    17   ar
    38    15     9    1
    39     6     1    1
    40    31    26   ar
    41    37    32   ar
@<TRIPOS>MOLECULE
*****
 37 41 0 0 0
SMALL
GASTEIGER

@<TRIPOS>ATOM
      1 N         142.5099  141.8329  161.8838 N.3     1  UNL1       -0.2750
      2 C         143.4601  141.0027  162.6948 C.3     1  UNL1        0.0737
      3 C         143.0379  140.4711  164.0324 C.3     1  UNL1        0.0374
      4 C         141.6654  140.7698  164.5589 C.3     1  UNL1        0.0800
      5 C         140.7152  141.6000  163.7479 C.3     1  UNL1        0.0374
      6 C         141.1374  142.1316  162.4103 C.3     1  UNL1        0.0737
      7 C         144.7112  140.9272  156.6708 C.2     1  UNL1        0.2542
      8 O         145.0509  139.4769  156.4938 O.2     1  UNL1       -0.2697
      9 N         144.1182  141.4063  157.9626 N.am    1  UNL1       -0.2758
     10 C         143.8648  140.4352  159.0774 C.3     1  UNL1        0.0951
     11 C         143.2718  140.9143  160.3692 C.3     1  UNL1        0.0362
     12 C         142.9321  142.3646  160.5462 C.3     1  UNL1        0.0487
     13 C         142.4458  143.6302  161.1878 C.3     1  UNL1        0.0161
     14 C         143.1854  143.3357  159.4315 C.3     1  UNL1        0.0362
     15 C         143.7784  142.8566  158.1396 C.3     1  UNL1        0.0951
     16 C         147.3370  142.3685  156.5046 C.3     1  UNL1        0.0316
     17 C         146.2774  142.6190  155.4729 C.ar    1  UNL1       -0.0058
     18 C         146.5307  143.5900  154.3581 C.ar    1  UNL1        0.0730
     19 C         145.4710  143.8405  153.3264 C.ar    1  UNL1        0.3010
     20 N         144.1581  143.1199  153.4095 N.ar    1  UNL1       -0.1606
     21 O         143.0985  143.3704  152.3778 O.co2   1  UNL1       -0.6190
     22 C         143.9049  142.1488  154.5243 C.ar    1  UNL1        0.2180
     23 C         142.5919  141.4281  154.6074 C.3     1  UNL1        0.1093
     24 C         144.9645  141.8983  155.5560 C.ar    1  UNL1        0.1099
     25 N         141.2432  140.2382  165.8965 N.pl3   1  UNL1       -0.2872
     26 C         140.0852  139.2899  165.9953 C.ar    1  UNL1        0.0516
     27 C         138.9830  139.5520  166.9785 C.ar    1  UNL1        0.0148
     28 C         137.8250  138.6038  167.0773 C.ar    1  UNL1        0.0013
     29 C         137.7690  137.3936  166.1930 C.ar    1  UNL1        0.0001
     30 C         138.8711  137.1315  165.2097 C.ar    1  UNL1        0.0013
     31 C         140.0292  138.0796  165.1109 C.ar    1  UNL1        0.0148
     32 C         141.9791  140.6548  167.1354 C.ar    1  UNL1        0.0710
     33 C         142.3466  142.0945  167.3410 C.ar    1  UNL1        0.0180
     34 C         143.0825  142.5112  168.5800 C.ar    1  UNL1        0.0220
     35 C         143.4508  141.4882  169.6132 C.ar    1  UNL1        0.0990
     36 N         143.0834  140.0485  169.4077 N.ar    1  UNL1       -0.2410
     37 C         142.3475  139.6318  168.1687 C.ar    1  UNL1        0.1136
@<TRIPOS>UNITY_ATOM_ATTR
20 1
charge 1
21 1
charge -1
@<TRIPOS>BOND
     1    16    17    1
     2    17    18   ar
     3    18    19   ar
     4    19    20   ar
     5    20    21    1
     6    20    22   ar
     7    22    23    1
     8    22    24   ar
     9    24     7    1
    10     7     8    2
    11     7     9   am
    12     9    10    1
    13    10    11    1
    14    11    12    1
    15    12    13    1
    16    12     1    1
    17     1     2    1
    18     2     3    1
    19     3     4    1
    20     4    25    1
    21    25    26    1
    22    26    27   ar
    23    27    28   ar
    24    28    29   ar
    25    29    30   ar
    26    30    31   ar
    27    25    32    1
    28    32    33   ar
    29    33    34   ar
    30    34    35   ar
    31    35    36   ar
    32    36    37   ar
    33     4     5    1
    34     5     6    1
    35    12    14    1
    36    14    15    1
    37    24    17   ar
    38    15     9    1
    39     6     1    1
    40    31    26   ar
    41    37    32   ar
@<TRIPOS>MOLECULE
*****
 37 41 0 0 0
SMALL
GASTEIGER

@<TRIPOS>ATOM
      1 N         140.5873  143.5696  161.9369 N.3     1  UNL1       -0.2750
      2 C         140.1053  142.5160  160.9844 C.3     1  UNL1        0.0737
      3 C         140.3008  142.6937  159.5079 C.3     1  UNL1        0.0374
      4 C         140.9783  143.9252  158.9839 C.3     1  UNL1        0.0800
      5 C         141.4603  144.9788  159.9364 C.3     1  UNL1        0.0374
      6 C         141.2648  144.8011  161.4130 C.3     1  UNL1        0.0737
      7 C         141.7323  140.7114  166.7702 C.2     1  UNL1        0.2542
      8 O         142.6802  139.5819  166.4951 O.2     1  UNL1       -0.2697
      9 N         141.2854  141.6049  165.6513 N.am    1  UNL1       -0.2758
     10 C         141.7866  141.3689  164.2573 C.3     1  UNL1        0.0951
     11 C         141.3397  142.2624  163.1384 C.3     1  UNL1        0.0362
     12 C         140.3918  143.3919  163.4135 C.3     1  UNL1        0.0487
     13 C         139.5118  144.5831  163.1758 C.3     1  UNL1        0.0161
     14 C         139.8907  143.6279  164.8074 C.3     1  UNL1        0.0362
     15 C         140.3375  142.7344  165.9264 C.3     1  UNL1        0.0951
     16 C         143.3674  142.3260  168.6988 C.3     1  UNL1        0.0316
     17 C         142.0487  141.7546  169.1285 C.ar    1  UNL1       -0.0058
     18 C         141.5476  141.9905  170.5225 C.ar    1  UNL1        0.0730
     19 C         140.2289  141.4192  170.9522 C.ar    1  UNL1        0.3010
     20 N         139.4114  140.6119  169.9879 N.ar    1  UNL1       -0.1606
     21 O         138.0927  140.0405  170.4176 O.co2   1  UNL1       -0.6190
     22 C         139.9125  140.3759  168.5940 C.ar    1  UNL1        0.2180
     23 C         139.0949  139.5686  167.6296 C.3     1  UNL1        0.1093
     24 C         141.2311  140.9473  168.1643 C.ar    1  UNL1        0.1099
     25 N         141.1738  144.1029  157.5074 N.pl3   1  UNL1       -0.2872
     26 C         142.4162  143.5827  156.8472 C.ar    1  UNL1        0.0516
     27 C         142.6329  143.8007  155.3790 C.ar    1  UNL1        0.0148
     28 C         143.8752  143.2806  154.7188 C.ar    1  UNL1        0.0013
     29 C         144.9011  142.5424  155.5268 C.ar    1  UNL1        0.0001
     30 C         144.6844  142.3244  156.9950 C.ar    1  UNL1        0.0013
     31 C         143.4421  142.8445  157.6552 C.ar    1  UNL1        0.0148
     32 C         140.1268  144.8008  156.6908 C.ar    1  UNL1        0.0710
     33 C         139.0276  144.0095  156.0461 C.ar    1  UNL1        0.0180
     34 C         137.9806  144.7075  155.2296 C.ar    1  UNL1        0.0220
     35 C         138.0327  146.1966  155.0578 C.ar    1  UNL1        0.0990
     36 N         139.1319  146.9879  155.7025 N.ar    1  UNL1       -0.2410
     37 C         140.1790  146.2900  156.5190 C.ar    1  UNL1        0.1136
@<TRIPOS>UNITY_ATOM_ATTR
20 1
charge 1
21 1
charge -1
@<TRIPOS>BOND
     1    16    17    1
     2    17    18   ar
     3    18    19   ar
     4    19    20   ar
     5    20    21    1
     6    20    22   ar
     7    22    23    1
     8    22    24   ar
     9    24     7    1
    10     7     8    2
    11     7     9   am
    12     9    10    1
    13    10    11    1
    14    11    12    1
    15    12    13    1
    16    12     1    1
    17     1     2    1
    18     2     3    1
    19     3     4    1
    20     4    25    1
    21    25    26    1
    22    26    27   ar
    23    27    28   ar
    24    28    29   ar
    25    29    30   ar
    26    30    31   ar
    27    25    32    1
    28    32    33   ar
    29    33    34   ar
    30    34    35   ar
    31    35    36   ar
    32    36    37   ar
    33     4     5    1
    34     5     6    1
    35    12    14    1
    36    14    15    1
    37    24    17   ar
    38    15     9    1
    39     6     1    1
    40    31    26   ar
    41    37    32   ar
@<TRIPOS>MOLECULE
*****
 37 41 0 0 0
SMALL
GASTEIGER

@<TRIPOS>ATOM
      1 N         139.2015  142.8642  161.5879 N.3     1  UNL1       -0.2750
      2 C         139.9966  143.8648  160.8027 C.3     1  UNL1        0.0737
      3 C         139.9374  143.8598  159.3038 C.3     1  UNL1        0.0374
      4 C         139.0831  142.8543  158.5903 C.3     1  UNL1        0.0800
      5 C         138.2880  141.8538  159.3756 C.3     1  UNL1        0.0374
      6 C         138.3472  141.8587  160.8744 C.3     1  UNL1        0.0737
      7 C         141.1980  140.6181  166.4675 C.2     1  UNL1        0.2542
      8 O         142.1076  139.4618  166.1747 O.2     1  UNL1       -0.2697
      9 N         140.5523  141.3685  165.3406 N.am    1  UNL1       -0.2758
     10 C         140.8161  140.9626  163.9208 C.3     1  UNL1        0.0951
     11 C         140.1703  141.7129  162.7939 C.3     1  UNL1        0.0362
     12 C         139.2607  142.8692  163.0868 C.3     1  UNL1        0.0487
     13 C         138.3306  144.0237  162.8591 C.3     1  UNL1        0.0161
     14 C         138.9969  143.2751  164.5065 C.3     1  UNL1        0.0362
     15 C         139.6427  142.5247  165.6334 C.3     1  UNL1        0.0951
     16 C         138.7593  139.6029  167.8895 C.3     1  UNL1        0.0316
     17 C         139.7149  140.5164  168.5983 C.ar    1  UNL1       -0.0058
     18 C         139.4511  140.9223  170.0180 C.ar    1  UNL1        0.0730
     19 C         140.4067  141.8358  170.7267 C.ar    1  UNL1        0.3010
     20 N         141.6261  142.3434  170.0158 N.ar    1  UNL1       -0.1606
     21 O         142.5816  143.2569  170.7245 O.co2   1  UNL1       -0.6190
     22 C         141.8898  141.9375  168.5961 C.ar    1  UNL1        0.2180
     23 C         143.1092  142.4451  167.8850 C.3     1  UNL1        0.1093
     24 C         140.9342  141.0240  167.8873 C.ar    1  UNL1        0.1099
     25 N         139.0239  142.8493  157.0915 N.pl3   1  UNL1       -0.2872
     26 C         139.9773  143.6950  156.3004 C.ar    1  UNL1        0.0516
     27 C         141.3525  143.1834  155.9889 C.ar    1  UNL1        0.0148
     28 C         142.3060  144.0289  155.1978 C.ar    1  UNL1        0.0013
     29 C         141.8842  145.3861  154.7181 C.ar    1  UNL1        0.0001
     30 C         140.5089  145.8977  155.0296 C.ar    1  UNL1        0.0013
     31 C         139.5555  145.0522  155.8207 C.ar    1  UNL1        0.0148
     32 C         138.0112  141.9986  156.3837 C.ar    1  UNL1        0.0710
     33 C         136.7038  142.5929  155.9506 C.ar    1  UNL1        0.0180
     34 C         135.6912  141.7422  155.2428 C.ar    1  UNL1        0.0220
     35 C         135.9858  140.2974  154.9682 C.ar    1  UNL1        0.0990
     36 N         137.2932  139.7031  155.4014 N.ar    1  UNL1       -0.2410
     37 C         138.3059  140.5538  156.1092 C.ar    1  UNL1        0.1136
@<TRIPOS>UNITY_ATOM_ATTR
20 1
charge 1
21 1
charge -1
@<TRIPOS>BOND
     1    16    17    1
     2    17    18   ar
     3    18    19   ar
     4    19    20   ar
     5    20    21    1
     6    20    22   ar
     7    22    23    1
     8    22    24   ar
     9    24     7    1
    10     7     8    2
    11     7     9   am
    12     9    10    1
    13    10    11    1
    14    11    12    1
    15    12    13    1
    16    12     1    1
    17     1     2    1
    18     2     3    1
    19     3     4    1
    20     4    25    1
    21    25    26    1
    22    26    27   ar
    23    27    28   ar
    24    28    29   ar
    25    29    30   ar
    26    30    31   ar
    27    25    32    1
    28    32    33   ar
    29    33    34   ar
    30    34    35   ar
    31    35    36   ar
    32    36    37   ar
    33     4     5    1
    34     5     6    1
    35    12    14    1
    36    14    15    1
    37    24    17   ar
    38    15     9    1
    39     6     1    1
    40    31    26   ar
    41    37    32   ar
@<TRIPOS>MOLECULE
*****
 37 41 0 0 0
SMALL
GASTEIGER

@<TRIPOS>ATOM
      1 N         138.8797  140.8741  161.3270 N.3     1  UNL1       -0.2750
      2 C         138.8753  139.7793  160.3018 C.3     1  UNL1        0.0737
      3 C         138.6126  140.1022  158.8607 C.3     1  UNL1        0.0374
      4 C         138.3542  141.5202  158.4449 C.3     1  UNL1        0.0800
      5 C         138.3586  142.6150  159.4702 C.3     1  UNL1        0.0374
      6 C         138.6213  142.2921  160.9112 C.3     1  UNL1        0.0737
      7 C         142.0339  141.5789  166.0594 C.2     1  UNL1        0.2542
      8 O         143.1566  142.5389  165.7987 O.2     1  UNL1       -0.2697
      9 N         141.0700  141.2363  164.9623 N.am    1  UNL1       -0.2758
     10 C         141.2289  141.8537  163.6045 C.3     1  UNL1        0.0951
     11 C         140.2651  141.5112  162.5074 C.3     1  UNL1        0.0362
     12 C         139.1424  140.5512  162.7681 C.3     1  UNL1        0.0487
     13 C         137.9284  139.7034  162.5283 C.3     1  UNL1        0.0161
     14 C         138.9835  139.9338  164.1258 C.3     1  UNL1        0.0362
     15 C         139.9473  140.2764  165.2230 C.3     1  UNL1        0.0951
     16 C         143.3259  138.9407  166.6681 C.3     1  UNL1        0.0316
     17 C         142.5210  139.6424  167.7216 C.ar    1  UNL1       -0.0058
     18 C         142.3621  139.0251  169.0794 C.ar    1  UNL1        0.0730
     19 C         141.5573  139.7269  170.1328 C.ar    1  UNL1        0.3010
     20 N         140.9113  141.0459  169.8285 N.ar    1  UNL1       -0.1606
     21 O         140.1064  141.7477  170.8819 O.co2   1  UNL1       -0.6190
     22 C         141.0701  141.6633  168.4707 C.ar    1  UNL1        0.2180
     23 C         140.4241  142.9824  168.1663 C.3     1  UNL1        0.1093
     24 C         141.8750  140.9615  167.4172 C.ar    1  UNL1        0.1099
     25 N         138.0915  141.8431  157.0039 N.pl3   1  UNL1       -0.2872
     26 C         137.2834  140.9028  156.1597 C.ar    1  UNL1        0.0516
     27 C         137.9717  139.9654  155.2123 C.ar    1  UNL1        0.0148
     28 C         137.1637  139.0251  154.3681 C.ar    1  UNL1        0.0013
     29 C         135.6672  139.0221  154.4712 C.ar    1  UNL1        0.0001
     30 C         134.9789  139.9595  155.4186 C.ar    1  UNL1        0.0013
     31 C         135.7869  140.8998  156.2628 C.ar    1  UNL1        0.0148
     32 C         138.6370  143.1065  156.4069 C.ar    1  UNL1        0.0710
     33 C         137.7087  144.0945  155.7649 C.ar    1  UNL1        0.0180
     34 C         138.2542  145.3579  155.1680 C.ar    1  UNL1        0.0220
     35 C         139.7280  145.6333  155.2130 C.ar    1  UNL1        0.0990
     36 N         140.6563  144.6454  155.8550 N.ar    1  UNL1       -0.2410
     37 C         140.1108  143.3820  156.4520 C.ar    1  UNL1        0.1136
@<TRIPOS>UNITY_ATOM_ATTR
20 1
charge 1
21 1
charge -1
@<TRIPOS>BOND
     1    16    17    1
     2    17    18   ar
     3    18    19   ar
     4    19    20   ar
     5    20    21    1
     6    20    22   ar
     7    22    23    1
     8    22    24   ar
     9    24     7    1
    10     7     8    2
    11     7     9   am
    12     9    10    1
    13    10    11    1
    14    11    12    1
    15    12    13    1
    16    12     1    1
    17     1     2    1
    18     2     3    1
    19     3     4    1
    20     4    25    1
    21    25    26    1
    22    26    27   ar
    23    27    28   ar
    24    28    29   ar
    25    29    30   ar
    26    30    31   ar
    27    25    32    1
    28    32    33   ar
    29    33    34   ar
    30    34    35   ar
    31    35    36   ar
    32    36    37   ar
    33     4     5    1
    34     5     6    1
    35    12    14    1
    36    14    15    1
    37    24    17   ar
    38    15     9    1
    39     6     1    1
    40    31    26   ar
    41    37    32   ar
@<TRIPOS>MOLECULE
*****
 37 41 0 0 0
SMALL
GASTEIGER

@<TRIPOS>ATOM
      1 N         140.4105  143.4384  161.7811 N.3     1  UNL1       -0.2750
      2 C         139.6568  142.5031  160.8827 C.3     1  UNL1        0.0737
      3 C         139.8002  142.6150  159.3937 C.3     1  UNL1        0.0374
      4 C         140.6973  143.6622  158.8032 C.3     1  UNL1        0.0800
      5 C         141.4510  144.5974  159.7016 C.3     1  UNL1        0.0374
      6 C         141.3076  144.4855  161.1906 C.3     1  UNL1        0.0737
      7 C         141.4753  140.6196  166.6557 C.2     1  UNL1        0.2542
      8 O         142.2854  139.3879  166.3787 O.2     1  UNL1       -0.2697
      9 N         141.0726  141.5219  165.5272 N.am    1  UNL1       -0.2758
     10 C         141.4800  141.1925  164.1216 C.3     1  UNL1        0.0951
     11 C         141.0773  142.0948  162.9930 C.3     1  UNL1        0.0362
     12 C         140.2671  143.3265  163.2700 C.3     1  UNL1        0.0487
     13 C         139.5068  144.5970  163.0299 C.3     1  UNL1        0.0161
     14 C         139.8597  143.6559  164.6755 C.3     1  UNL1        0.0362
     15 C         140.2624  142.7535  165.8041 C.3     1  UNL1        0.0951
     16 C         138.8804  139.5827  167.7474 C.3     1  UNL1        0.0316
     17 C         139.7705  140.4305  168.6071 C.ar    1  UNL1       -0.0058
     18 C         139.3631  140.7599  170.0126 C.ar    1  UNL1        0.0730
     19 C         140.2531  141.6076  170.8723 C.ar    1  UNL1        0.3010
     20 N         141.5505  142.1261  170.3265 N.ar    1  UNL1       -0.1606
     21 O         142.4406  142.9739  171.1862 O.co2   1  UNL1       -0.6190
     22 C         141.9579  141.7967  168.9210 C.ar    1  UNL1        0.2180
     23 C         143.2553  142.3152  168.3751 C.3     1  UNL1        0.1093
     24 C         141.0679  140.9489  168.0613 C.ar    1  UNL1        0.1099
     25 N         140.8407  143.7740  157.3143 N.pl3   1  UNL1       -0.2872
     26 C         141.8237  142.9045  156.5880 C.ar    1  UNL1        0.0516
     27 C         141.6103  141.4210  156.5262 C.ar    1  UNL1        0.0148
     28 C         142.5933  140.5515  155.7999 C.ar    1  UNL1        0.0013
     29 C         143.7898  141.1654  155.1354 C.ar    1  UNL1        0.0001
     30 C         144.0032  142.6488  155.1971 C.ar    1  UNL1        0.0013
     31 C         143.0202  143.5184  155.9234 C.ar    1  UNL1        0.0148
     32 C         140.0009  144.7555  156.5516 C.ar    1  UNL1        0.0710
     33 C         140.3723  146.2087  156.5378 C.ar    1  UNL1        0.0180
     34 C         139.5325  147.1901  155.7751 C.ar    1  UNL1        0.0220
     35 C         138.3215  146.7183  155.0263 C.ar    1  UNL1        0.0990
     36 N         137.9501  145.2651  155.0401 N.ar    1  UNL1       -0.2410
     37 C         138.7899  144.2837  155.8028 C.ar    1  UNL1        0.1136
@<TRIPOS>UNITY_ATOM_ATTR
20 1
charge 1
21 1
charge -1
@<TRIPOS>BOND
     1    16    17    1
     2    17    18   ar
     3    18    19   ar
     4    19    20   ar
     5    20    21    1
     6    20    22   ar
     7    22    23    1
     8    22    24   ar
     9    24     7    1
    10     7     8    2
    11     7     9   am
    12     9    10    1
    13    10    11    1
    14    11    12    1
    15    12    13    1
    16    12     1    1
    17     1     2    1
    18     2     3    1
    19     3     4    1
    20     4    25    1
    21    25    26    1
    22    26    27   ar
    23    27    28   ar
    24    28    29   ar
    25    29    30   ar
    26    30    31   ar
    27    25    32    1
    28    32    33   ar
    29    33    34   ar
    30    34    35   ar
    31    35    36   ar
    32    36    37   ar
    33     4     5    1
    34     5     6    1
    35    12    14    1
    36    14    15    1
    37    24    17   ar
    38    15     9    1
    39     6     1    1
    40    31    26   ar
    41    37    32   ar
@<TRIPOS>MOLECULE
*****
 37 41 0 0 0
SMALL
GASTEIGER

@<TRIPOS>ATOM
      1 N         139.5039  143.4309  161.2251 N.3     1  UNL1       -0.2750
      2 C         138.5746  142.4513  160.5720 C.3     1  UNL1        0.0737
      3 C         138.3904  142.4700  159.0835 C.3     1  UNL1        0.0374
      4 C         139.1356  143.4684  158.2480 C.3     1  UNL1        0.0800
      5 C         140.0649  144.4480  158.9011 C.3     1  UNL1        0.0374
      6 C         140.2491  144.4293  160.3896 C.3     1  UNL1        0.0737
      7 C         141.2724  140.7257  165.9575 C.2     1  UNL1        0.2542
      8 O         141.8332  139.3790  165.6087 O.2     1  UNL1       -0.2697
      9 N         140.7443  141.6212  164.8762 N.am    1  UNL1       -0.2758
     10 C         140.7771  141.1700  163.4460 C.3     1  UNL1        0.0951
     11 C         140.2490  142.0655  162.3648 C.3     1  UNL1        0.0362
     12 C         139.6881  143.4122  162.7136 C.3     1  UNL1        0.0487
     13 C         139.0633  144.7654  162.5455 C.3     1  UNL1        0.0161
     14 C         139.6553  143.8635  164.1437 C.3     1  UNL1        0.0362
     15 C         140.1834  142.9680  165.2251 C.3     1  UNL1        0.0951
     16 C         143.4240  142.5319  167.0103 C.3     1  UNL1        0.0316
     17 C         142.3154  142.0800  167.9141 C.ar    1  UNL1       -0.0058
     18 C         142.2825  142.5312  169.3442 C.ar    1  UNL1        0.0730
     19 C         141.1739  142.0794  170.2479 C.ar    1  UNL1        0.3010
     20 N         140.0981  141.1763  169.7216 N.ar    1  UNL1       -0.1606
     21 O         138.9895  140.7245  170.6253 O.co2   1  UNL1       -0.6190
     22 C         140.1309  140.7251  168.2914 C.ar    1  UNL1        0.2180
     23 C         139.0551  139.8220  167.7650 C.3     1  UNL1        0.1093
     24 C         141.2396  141.1770  167.3877 C.ar    1  UNL1        0.1099
     25 N         138.9514  143.4871  156.7595 N.pl3   1  UNL1       -0.2872
     26 C         139.5075  144.6201  155.9490 C.ar    1  UNL1        0.0516
     27 C         138.6796  145.8478  155.7093 C.ar    1  UNL1        0.0148
     28 C         139.2356  146.9809  154.8989 C.ar    1  UNL1        0.0013
     29 C         140.6196  146.8864  154.3282 C.ar    1  UNL1        0.0001
     30 C         141.4475  145.6587  154.5679 C.ar    1  UNL1        0.0013
     31 C         140.8915  144.5256  155.3783 C.ar    1  UNL1        0.0148
     32 C         138.2110  142.3726  156.0814 C.ar    1  UNL1        0.0710
     33 C         136.7534  142.5258  155.7621 C.ar    1  UNL1        0.0180
     34 C         136.0130  141.4113  155.0839 C.ar    1  UNL1        0.0220
     35 C         136.7302  140.1437  154.7251 C.ar    1  UNL1        0.0990
     36 N         138.1878  139.9905  155.0444 N.ar    1  UNL1       -0.2410
     37 C         138.9282  141.1050  155.7225 C.ar    1  UNL1        0.1136
@<TRIPOS>UNITY_ATOM_ATTR
20 1
charge 1
21 1
charge -1
@<TRIPOS>BOND
     1    16    17    1
     2    17    18   ar
     3    18    19   ar
     4    19    20   ar
     5    20    21    1
     6    20    22   ar
     7    22    23    1
     8    22    24   ar
     9    24     7    1
    10     7     8    2
    11     7     9   am
    12     9    10    1
    13    10    11    1
    14    11    12    1
    15    12    13    1
    16    12     1    1
    17     1     2    1
    18     2     3    1
    19     3     4    1
    20     4    25    1
    21    25    26    1
    22    26    27   ar
    23    27    28   ar
    24    28    29   ar
    25    29    30   ar
    26    30    31   ar
    27    25    32    1
    28    32    33   ar
    29    33    34   ar
    30    34    35   ar
    31    35    36   ar
    32    36    37   ar
    33     4     5    1
    34     5     6    1
    35    12    14    1
    36    14    15    1
    37    24    17   ar
    38    15     9    1
    39     6     1    1
    40    31    26   ar
    41    37    32   ar
@<TRIPOS>MOLECULE
*****
 37 41 0 0 0
SMALL
GASTEIGER

@<TRIPOS>ATOM
      1 N         139.5400  142.9731  160.3769 N.3     1  UNL1       -0.2750
      2 C         138.4385  142.2432  159.6670 C.3     1  UNL1        0.0737
      3 C         138.1788  142.5075  158.2135 C.3     1  UNL1        0.0374
      4 C         139.0207  143.5017  157.4699 C.3     1  UNL1        0.0800
      5 C         140.1222  144.2315  158.1798 C.3     1  UNL1        0.0374
      6 C         140.3819  143.9672  159.6333 C.3     1  UNL1        0.0737
      7 C         140.5280  139.2627  164.6311 C.2     1  UNL1        0.2542
      8 O         140.5502  137.8589  164.1030 O.2     1  UNL1       -0.2697
      9 N         140.2852  140.4114  163.6976 N.am    1  UNL1       -0.2758
     10 C         140.0646  140.1563  162.2359 C.3     1  UNL1        0.0951
     11 C         139.8218  141.3050  161.3024 C.3     1  UNL1        0.0362
     12 C         139.7996  142.7088  161.8304 C.3     1  UNL1        0.0487
     13 C         139.6873  144.2043  161.8537 C.3     1  UNL1        0.0161
     14 C         140.0203  142.9639  163.2920 C.3     1  UNL1        0.0362
     15 C         140.2631  141.8152  164.2256 C.3     1  UNL1        0.0951
     16 C         143.3048  139.7160  165.6723 C.3     1  UNL1        0.0316
     17 C         142.1370  139.7444  166.6133 C.ar    1  UNL1       -0.0058
     18 C         142.3576  139.9995  168.0749 C.ar    1  UNL1        0.0730
     19 C         141.1899  140.0279  169.0159 C.ar    1  UNL1        0.3010
     20 N         139.8015  139.8012  168.4953 N.ar    1  UNL1       -0.1606
     21 O         138.6337  139.8297  169.4363 O.co2   1  UNL1       -0.6190
     22 C         139.5809  139.5462  167.0337 C.ar    1  UNL1        0.2180
     23 C         138.1925  139.3195  166.5131 C.3     1  UNL1        0.1093
     24 C         140.7487  139.5178  166.0927 C.ar    1  UNL1        0.1099
     25 N         138.7611  143.7660  156.0164 N.pl3   1  UNL1       -0.2872
     26 C         139.2965  145.0107  155.3730 C.ar    1  UNL1        0.0516
     27 C         138.5686  146.3120  155.5364 C.ar    1  UNL1        0.0148
     28 C         139.1040  147.5568  154.8930 C.ar    1  UNL1        0.0013
     29 C         140.3673  147.5002  154.0862 C.ar    1  UNL1        0.0001
     30 C         141.0952  146.1988  153.9228 C.ar    1  UNL1        0.0013
     31 C         140.5598  144.9541  154.5661 C.ar    1  UNL1        0.0148
     32 C         137.9659  142.7854  155.2062 C.ar    1  UNL1        0.0710
     33 C         136.5107  143.0361  154.9424 C.ar    1  UNL1        0.0180
     34 C         135.7156  142.0556  154.1322 C.ar    1  UNL1        0.0220
     35 C         136.3756  140.8245  153.5858 C.ar    1  UNL1        0.0990
     36 N         137.8308  140.5738  153.8496 N.ar    1  UNL1       -0.2410
     37 C         138.6259  141.5543  154.6598 C.ar    1  UNL1        0.1136
@<TRIPOS>UNITY_ATOM_ATTR
20 1
charge 1
21 1
charge -1
@<TRIPOS>BOND
     1    16    17    1
     2    17    18   ar
     3    18    19   ar
     4    19    20   ar
     5    20    21    1
     6    20    22   ar
     7    22    23    1
     8    22    24   ar
     9    24     7    1
    10     7     8    2
    11     7     9   am
    12     9    10    1
    13    10    11    1
    14    11    12    1
    15    12    13    1
    16    12     1    1
    17     1     2    1
    18     2     3    1
    19     3     4    1
    20     4    25    1
    21    25    26    1
    22    26    27   ar
    23    27    28   ar
    24    28    29   ar
    25    29    30   ar
    26    30    31   ar
    27    25    32    1
    28    32    33   ar
    29    33    34   ar
    30    34    35   ar
    31    35    36   ar
    32    36    37   ar
    33     4     5    1
    34     5     6    1
    35    12    14    1
    36    14    15    1
    37    24    17   ar
    38    15     9    1
    39     6     1    1
    40    31    26   ar
    41    37    32   ar
