@<TRIPOS>MOLECULE
*****
 27 30 0 0 0
SMALL
GASTEIGER

@<TRIPOS>ATOM
      1 C         139.5747  139.3940  165.5739 C.ar    1  UNL1        0.1035
      2 C         139.2087  137.9462  165.4332 C.ar    1  UNL1        0.1197
      3 N         138.8169  137.7038  164.0057 N.ar    1  UNL1       -0.2234
      4 C         138.9408  139.0017  163.2641 C.ar    1  UNL1        0.1639
      5 C         138.6877  139.3674  161.8316 C.ar    1  UNL1        0.0404
      6 C         138.9030  140.7776  161.3683 C.ar    1  UNL1        0.0240
      7 C         139.3714  141.8223  162.3374 C.ar    1  UNL1        0.1016
      8 N         139.6245  141.4567  163.7700 N.ar    1  UNL1       -0.1638
      9 N         139.4092  140.0464  164.2333 N.ar    1  UNL1       -0.2107
     10 C         140.9314  141.4242  169.3538 C.ar    1  UNL1        0.1807
     11 C         139.7052  140.5604  169.3650 C.ar    1  UNL1        0.0520
     12 C         139.2530  139.8837  168.1050 C.ar    1  UNL1        0.0060
     13 C         140.0269  140.0707  166.8339 C.ar    1  UNL1        0.0196
     14 C         141.2533  140.9346  166.8227 C.ar    1  UNL1        0.0060
     15 C         141.7055  141.6113  168.0827 C.ar    1  UNL1        0.0520
     16 C         142.6810  142.8535  170.6369 C.3     1  UNL1        0.3254
     17 S         141.3837  142.1009  170.6138 S.O     1  UNL1        0.0581
     18 O         140.5385  142.0250  171.8507 O.co2   1  UNL1       -0.6774
     19 C         139.5866  143.2326  161.8740 C.ar    1  UNL1        0.0237
     20 C         139.1359  144.3800  162.7287 C.ar    1  UNL1        0.0018
     21 C         139.3511  145.7903  162.2652 C.ar    1  UNL1        0.0045
     22 C         140.0171  146.0532  160.9472 C.ar    1  UNL1        0.0519
     23 C         140.4679  144.9058  160.0925 C.ar    1  UNL1        0.1808
     24 C         140.2526  143.4956  160.5560 C.ar    1  UNL1        0.0535
     25 S         141.1339  145.1687  158.7744 S.O     1  UNL1        0.0581
     26 C         140.3825  145.8685  157.6809 C.3     1  UNL1        0.3254
     27 O         142.5512  144.7320  158.5499 O.co2   1  UNL1       -0.6774
@<TRIPOS>UNITY_ATOM_ATTR
17 1
charge 1
18 1
charge -1
25 1
charge 1
27 1
charge -1
@<TRIPOS>BOND
     1    16    17    1
     2    17    18    2
     3    17    10    1
     4    10    11   ar
     5    11    12   ar
     6    12    13   ar
     7    13     1    1
     8     1     2   ar
     9     2     3   ar
    10     3     4   ar
    11     4     5   ar
    12     5     6   ar
    13     6     7   ar
    14     7    19    1
    15    19    20   ar
    16    20    21   ar
    17    21    22   ar
    18    22    23   ar
    19    23    25    1
    20    25    26    1
    21    25    27    2
    22    23    24   ar
    23     7     8   ar
    24     8     9   ar
    25    13    14   ar
    26    14    15   ar
    27    15    10   ar
    28     9     1   ar
    29     9     4   ar
    30    24    19   ar
@<TRIPOS>MOLECULE
*****
 27 30 0 0 0
SMALL
GASTEIGER

@<TRIPOS>ATOM
      1 C         141.1471  144.3267  161.1766 C.ar    1  UNL1        0.1035
      2 C         140.2622  145.4839  160.8189 C.ar    1  UNL1        0.1197
      3 N         139.4330  145.8226  162.0221 N.ar    1  UNL1       -0.2234
      4 C         139.8054  144.8747  163.1234 C.ar    1  UNL1        0.1639
      5 C         139.3168  144.7340  164.5346 C.ar    1  UNL1        0.0404
      6 C         139.8875  143.6688  165.4232 C.ar    1  UNL1        0.0240
      7 C         140.9469  142.7443  164.9006 C.ar    1  UNL1        0.1016
      8 N         141.4355  142.8850  163.4894 N.ar    1  UNL1       -0.1638
      9 N         140.8648  143.9502  162.6009 N.ar    1  UNL1       -0.2107
     10 C         144.1258  142.3344  158.4547 C.ar    1  UNL1        0.1807
     11 C         142.8285  142.8451  157.9013 C.ar    1  UNL1        0.0520
     12 C         141.8357  143.5092  158.8086 C.ar    1  UNL1        0.0060
     13 C         142.1399  143.6626  160.2693 C.ar    1  UNL1        0.0196
     14 C         143.4372  143.1519  160.8228 C.ar    1  UNL1        0.0060
     15 C         144.4301  142.4878  159.9155 C.ar    1  UNL1        0.0520
     16 C         146.2845  142.4486  157.0136 C.3     1  UNL1        0.3254
     17 S         145.1186  141.6703  157.5474 S.O     1  UNL1        0.0581
     18 O         144.9456  140.2279  157.1740 O.co2   1  UNL1       -0.6774
     19 C         141.5176  141.6791  165.7892 C.ar    1  UNL1        0.0237
     20 C         141.6684  140.2771  165.2778 C.ar    1  UNL1        0.0018
     21 C         142.2391  139.2118  166.1664 C.ar    1  UNL1        0.0045
     22 C         142.6590  139.5487  167.5665 C.ar    1  UNL1        0.0519
     23 C         142.5082  140.9508  168.0779 C.ar    1  UNL1        0.1808
     24 C         141.9375  142.0159  167.1893 C.ar    1  UNL1        0.0535
     25 S         142.9282  141.2876  169.4780 S.O     1  UNL1        0.0581
     26 C         142.8897  142.7107  169.9506 C.3     1  UNL1        0.3254
     27 O         143.3866  140.2014  170.4053 O.co2   1  UNL1       -0.6774
@<TRIPOS>UNITY_ATOM_ATTR
17 1
charge 1
18 1
charge -1
25 1
charge 1
27 1
charge -1
@<TRIPOS>BOND
     1    16    17    1
     2    17    18    2
     3    17    10    1
     4    10    11   ar
     5    11    12   ar
     6    12    13   ar
     7    13     1    1
     8     1     2   ar
     9     2     3   ar
    10     3     4   ar
    11     4     5   ar
    12     5     6   ar
    13     6     7   ar
    14     7    19    1
    15    19    20   ar
    16    20    21   ar
    17    21    22   ar
    18    22    23   ar
    19    23    25    1
    20    25    26    1
    21    25    27    2
    22    23    24   ar
    23     7     8   ar
    24     8     9   ar
    25    13    14   ar
    26    14    15   ar
    27    15    10   ar
    28     9     1   ar
    29     9     4   ar
    30    24    19   ar
@<TRIPOS>MOLECULE
*****
 27 30 0 0 0
SMALL
GASTEIGER

@<TRIPOS>ATOM
      1 C         141.0206  144.4607  161.0171 C.ar    1  UNL1        0.1035
      2 C         140.2090  145.6530  160.6054 C.ar    1  UNL1        0.1197
      3 N         139.3356  146.0407  161.7616 N.ar    1  UNL1       -0.2234
      4 C         139.6075  145.0880  162.8879 C.ar    1  UNL1        0.1639
      5 C         139.0413  144.9835  164.2729 C.ar    1  UNL1        0.0404
      6 C         139.5165  143.9025  165.1978 C.ar    1  UNL1        0.0240
      7 C         140.5580  142.9259  164.7377 C.ar    1  UNL1        0.1016
      8 N         141.1242  143.0304  163.3526 N.ar    1  UNL1       -0.1638
      9 N         140.6489  144.1114  162.4277 N.ar    1  UNL1       -0.2107
     10 C         144.0408  142.3089  158.4678 C.ar    1  UNL1        0.1807
     11 C         142.7873  142.8519  157.8483 C.ar    1  UNL1        0.0520
     12 C         141.7806  143.5692  158.6981 C.ar    1  UNL1        0.0060
     13 C         142.0273  143.7434  160.1673 C.ar    1  UNL1        0.0196
     14 C         143.2809  143.2004  160.7868 C.ar    1  UNL1        0.0060
     15 C         144.2877  142.4831  159.9371 C.ar    1  UNL1        0.0520
     16 C         146.1991  142.3457  157.0219 C.3     1  UNL1        0.3254
     17 S         145.0475  141.5916  157.6180 S.O     1  UNL1        0.0581
     18 O         144.9027  140.1204  157.3645 O.co2   1  UNL1       -0.6774
     19 C         141.0332  141.8449  165.6626 C.ar    1  UNL1        0.0237
     20 C         140.3899  141.6712  167.0065 C.ar    1  UNL1        0.0018
     21 C         140.8652  140.5902  167.9315 C.ar    1  UNL1        0.0045
     22 C         141.9838  139.6828  167.5125 C.ar    1  UNL1        0.0519
     23 C         142.6271  139.8565  166.1686 C.ar    1  UNL1        0.1808
     24 C         142.1518  140.9375  165.2437 C.ar    1  UNL1        0.0535
     25 S         143.7456  138.9491  165.7496 S.O     1  UNL1        0.0581
     26 C         144.3854  139.1195  164.4036 C.3     1  UNL1        0.3254
     27 O         144.2244  137.8715  166.6766 O.co2   1  UNL1       -0.6774
@<TRIPOS>UNITY_ATOM_ATTR
17 1
charge 1
18 1
charge -1
25 1
charge 1
27 1
charge -1
@<TRIPOS>BOND
     1    16    17    1
     2    17    18    2
     3    17    10    1
     4    10    11   ar
     5    11    12   ar
     6    12    13   ar
     7    13     1    1
     8     1     2   ar
     9     2     3   ar
    10     3     4   ar
    11     4     5   ar
    12     5     6   ar
    13     6     7   ar
    14     7    19    1
    15    19    20   ar
    16    20    21   ar
    17    21    22   ar
    18    22    23   ar
    19    23    25    1
    20    25    26    1
    21    25    27    2
    22    23    24   ar
    23     7     8   ar
    24     8     9   ar
    25    13    14   ar
    26    14    15   ar
    27    15    10   ar
    28     9     1   ar
    29     9     4   ar
    30    24    19   ar
@<TRIPOS>MOLECULE
*****
 27 30 0 0 0
SMALL
GASTEIGER

@<TRIPOS>ATOM
      1 C         139.2474  142.7985  164.6993 C.ar    1  UNL1        0.1035
      2 C         138.4387  144.0544  164.5624 C.ar    1  UNL1        0.1197
      3 N         138.3461  144.3892  163.1032 N.ar    1  UNL1       -0.2234
      4 C         139.0975  143.3403  162.3382 C.ar    1  UNL1        0.1639
      5 C         139.3464  143.1533  160.8709 C.ar    1  UNL1        0.0404
      6 C         140.1524  141.9833  160.3901 C.ar    1  UNL1        0.0240
      7 C         140.7094  141.0001  161.3765 C.ar    1  UNL1        0.1016
      8 N         140.4605  141.1871  162.8438 N.ar    1  UNL1       -0.1638
      9 N         139.6545  142.3571  163.3247 N.ar    1  UNL1       -0.2107
     10 C         140.2723  140.7197  168.5566 C.ar    1  UNL1        0.1807
     11 C         139.5407  139.9790  167.4768 C.ar    1  UNL1        0.0520
     12 C         139.1991  140.6719  166.1910 C.ar    1  UNL1        0.0060
     13 C         139.5890  142.1055  165.9850 C.ar    1  UNL1        0.0196
     14 C         140.3207  142.8464  167.0649 C.ar    1  UNL1        0.0060
     15 C         140.6623  142.1534  168.3506 C.ar    1  UNL1        0.0520
     16 C         142.0157  139.5542  170.0901 C.3     1  UNL1        0.3254
     17 S         140.6139  140.0268  169.8423 S.O     1  UNL1        0.0581
     18 O         139.5536  139.8066  170.8802 O.co2   1  UNL1       -0.6774
     19 C         141.5155  139.8300  160.8956 C.ar    1  UNL1        0.0237
     20 C         142.2766  138.9893  161.8774 C.ar    1  UNL1        0.0018
     21 C         143.0826  137.8192  161.3964 C.ar    1  UNL1        0.0045
     22 C         143.1275  137.4899  159.9337 C.ar    1  UNL1        0.0519
     23 C         142.3663  138.3306  158.9519 C.ar    1  UNL1        0.1808
     24 C         141.5604  139.5007  159.4329 C.ar    1  UNL1        0.0535
     25 S         142.4112  138.0013  157.4892 S.O     1  UNL1        0.0581
     26 C         141.2324  137.3475  156.8311 C.3     1  UNL1        0.3254
     27 O         143.6349  138.3257  156.6846 O.co2   1  UNL1       -0.6774
@<TRIPOS>UNITY_ATOM_ATTR
17 1
charge 1
18 1
charge -1
25 1
charge 1
27 1
charge -1
@<TRIPOS>BOND
     1    16    17    1
     2    17    18    2
     3    17    10    1
     4    10    11   ar
     5    11    12   ar
     6    12    13   ar
     7    13     1    1
     8     1     2   ar
     9     2     3   ar
    10     3     4   ar
    11     4     5   ar
    12     5     6   ar
    13     6     7   ar
    14     7    19    1
    15    19    20   ar
    16    20    21   ar
    17    21    22   ar
    18    22    23   ar
    19    23    25    1
    20    25    26    1
    21    25    27    2
    22    23    24   ar
    23     7     8   ar
    24     8     9   ar
    25    13    14   ar
    26    14    15   ar
    27    15    10   ar
    28     9     1   ar
    29     9     4   ar
    30    24    19   ar
@<TRIPOS>MOLECULE
*****
 27 30 0 0 0
SMALL
GASTEIGER

@<TRIPOS>ATOM
      1 C         140.5715  142.9567  160.6583 C.ar    1  UNL1        0.1035
      2 C         140.8981  144.3448  160.1932 C.ar    1  UNL1        0.1197
      3 N         140.8139  145.2621  161.3770 N.ar    1  UNL1       -0.2234
      4 C         140.4353  144.4409  162.5738 C.ar    1  UNL1        0.1639
      5 C         140.2075  144.8065  164.0106 C.ar    1  UNL1        0.0404
      6 C         139.8300  143.7473  165.0032 C.ar    1  UNL1        0.0240
      7 C         139.6803  142.3224  164.5591 C.ar    1  UNL1        0.1016
      8 N         139.9080  141.9568  163.1223 N.ar    1  UNL1       -0.1638
      9 N         140.2855  143.0160  162.1296 N.ar    1  UNL1       -0.2107
     10 C         140.4681  139.2625  158.0907 C.ar    1  UNL1        0.1807
     11 C         141.2068  139.2481  159.3962 C.ar    1  UNL1        0.0520
     12 C         141.2412  140.4795  160.2520 C.ar    1  UNL1        0.0060
     13 C         140.5371  141.7253  159.8025 C.ar    1  UNL1        0.0196
     14 C         139.7984  141.7396  158.4970 C.ar    1  UNL1        0.0060
     15 C         139.7639  140.5082  157.6411 C.ar    1  UNL1        0.0520
     16 C         141.6989  137.2744  156.9581 C.3     1  UNL1        0.3254
     17 S         140.4336  138.0311  157.2349 S.O     1  UNL1        0.0581
     18 O         139.1339  137.5564  156.6559 O.co2   1  UNL1       -0.6774
     19 C         139.3027  141.2631  165.5518 C.ar    1  UNL1        0.0237
     20 C         138.3549  140.1694  165.1576 C.ar    1  UNL1        0.0018
     21 C         137.9773  139.1101  166.1503 C.ar    1  UNL1        0.0045
     22 C         138.5477  139.1446  167.5372 C.ar    1  UNL1        0.0519
     23 C         139.4956  140.2383  167.9314 C.ar    1  UNL1        0.1808
     24 C         139.8731  141.2975  166.9387 C.ar    1  UNL1        0.0535
     25 S         140.0660  140.2727  169.3183 S.O     1  UNL1        0.0581
     26 C         141.4708  139.8071  169.5633 C.3     1  UNL1        0.3254
     27 O         139.2317  140.7728  170.4601 O.co2   1  UNL1       -0.6774
@<TRIPOS>UNITY_ATOM_ATTR
17 1
charge 1
18 1
charge -1
25 1
charge 1
27 1
charge -1
@<TRIPOS>BOND
     1    16    17    1
     2    17    18    2
     3    17    10    1
     4    10    11   ar
     5    11    12   ar
     6    12    13   ar
     7    13     1    1
     8     1     2   ar
     9     2     3   ar
    10     3     4   ar
    11     4     5   ar
    12     5     6   ar
    13     6     7   ar
    14     7    19    1
    15    19    20   ar
    16    20    21   ar
    17    21    22   ar
    18    22    23   ar
    19    23    25    1
    20    25    26    1
    21    25    27    2
    22    23    24   ar
    23     7     8   ar
    24     8     9   ar
    25    13    14   ar
    26    14    15   ar
    27    15    10   ar
    28     9     1   ar
    29     9     4   ar
    30    24    19   ar
@<TRIPOS>MOLECULE
*****
 27 30 0 0 0
SMALL
GASTEIGER

@<TRIPOS>ATOM
      1 C         143.1379  141.7111  161.1343 C.ar    1  UNL1        0.1035
      2 C         144.2142  142.7152  160.8453 C.ar    1  UNL1        0.1197
      3 N         144.4851  143.4802  162.1069 N.ar    1  UNL1       -0.2234
      4 C         143.5764  142.9488  163.1755 C.ar    1  UNL1        0.1639
      5 C         143.3995  143.3192  164.6181 C.ar    1  UNL1        0.0404
      6 C         142.3900  142.5964  165.4597 C.ar    1  UNL1        0.0240
      7 C         141.5573  141.5030  164.8586 C.ar    1  UNL1        0.1016
      8 N         141.7342  141.1326  163.4159 N.ar    1  UNL1       -0.1638
      9 N         142.7437  141.8554  162.5743 N.ar    1  UNL1       -0.2107
     10 C         141.3972  138.7803  158.1965 C.ar    1  UNL1        0.1807
     11 C         142.1823  138.2847  159.3746 C.ar    1  UNL1        0.0520
     12 C         142.7625  139.2616  160.3539 C.ar    1  UNL1        0.0060
     13 C         142.5577  140.7342  160.1550 C.ar    1  UNL1        0.0196
     14 C         141.7726  141.2298  158.9768 C.ar    1  UNL1        0.0060
     15 C         141.1924  140.2529  157.9975 C.ar    1  UNL1        0.0520
     16 C         141.7245  136.9385  156.3935 C.3     1  UNL1        0.3254
     17 S         140.8170  137.8033  157.2172 S.O     1  UNL1        0.0581
     18 O         139.3294  137.6912  157.0618 O.co2   1  UNL1       -0.6774
     19 C         140.5478  140.7801  165.7002 C.ar    1  UNL1        0.0237
     20 C         139.4828  139.9503  165.0467 C.ar    1  UNL1        0.0018
     21 C         138.4732  139.2274  165.8884 C.ar    1  UNL1        0.0045
     22 C         138.5288  139.3344  167.3835 C.ar    1  UNL1        0.0519
     23 C         139.5938  140.1643  168.0370 C.ar    1  UNL1        0.1808
     24 C         140.6033  140.8871  167.1954 C.ar    1  UNL1        0.0535
     25 S         139.6493  140.2713  169.5322 S.O     1  UNL1        0.0581
     26 C         140.9262  139.9686  170.2589 C.3     1  UNL1        0.3254
     27 O         138.4280  140.6810  170.3006 O.co2   1  UNL1       -0.6774
@<TRIPOS>UNITY_ATOM_ATTR
17 1
charge 1
18 1
charge -1
25 1
charge 1
27 1
charge -1
@<TRIPOS>BOND
     1    16    17    1
     2    17    18    2
     3    17    10    1
     4    10    11   ar
     5    11    12   ar
     6    12    13   ar
     7    13     1    1
     8     1     2   ar
     9     2     3   ar
    10     3     4   ar
    11     4     5   ar
    12     5     6   ar
    13     6     7   ar
    14     7    19    1
    15    19    20   ar
    16    20    21   ar
    17    21    22   ar
    18    22    23   ar
    19    23    25    1
    20    25    26    1
    21    25    27    2
    22    23    24   ar
    23     7     8   ar
    24     8     9   ar
    25    13    14   ar
    26    14    15   ar
    27    15    10   ar
    28     9     1   ar
    29     9     4   ar
    30    24    19   ar
@<TRIPOS>MOLECULE
*****
 27 30 0 0 0
SMALL
GASTEIGER

@<TRIPOS>ATOM
      1 C         140.3911  143.4284  161.3573 C.ar    1  UNL1        0.1035
      2 C         139.7158  144.6673  160.8482 C.ar    1  UNL1        0.1197
      3 N         139.1459  145.4016  162.0254 N.ar    1  UNL1       -0.2234
      4 C         139.4688  144.6166  163.2621 C.ar    1  UNL1        0.1639
      5 C         139.1615  144.8546  164.7108 C.ar    1  UNL1        0.0404
      6 C         139.6239  143.8732  165.7466 C.ar    1  UNL1        0.0240
      7 C         140.3935  142.6537  165.3338 C.ar    1  UNL1        0.1016
      8 N         140.7007  142.4156  163.8850 N.ar    1  UNL1       -0.1638
      9 N         140.2384  143.3970  162.8492 N.ar    1  UNL1       -0.2107
     10 C         142.5039  140.3467  158.8494 C.ar    1  UNL1        0.1807
     11 C         143.2464  141.0672  159.9354 C.ar    1  UNL1        0.0520
     12 C         142.5421  142.0945  160.7713 C.ar    1  UNL1        0.0060
     13 C         141.0954  142.4012  160.5214 C.ar    1  UNL1        0.0196
     14 C         140.3527  141.6806  159.4353 C.ar    1  UNL1        0.0060
     15 C         141.0570  140.6534  158.5994 C.ar    1  UNL1        0.0520
     16 C         142.7125  137.9039  157.9896 C.3     1  UNL1        0.3254
     17 S         143.2081  139.3195  158.0134 S.O     1  UNL1        0.0581
     18 O         144.4080  139.7079  157.2014 O.co2   1  UNL1       -0.6774
     19 C         140.8558  141.6722  166.3697 C.ar    1  UNL1        0.0237
     20 C         141.9572  140.7059  166.0486 C.ar    1  UNL1        0.0018
     21 C         142.4195  139.7244  167.0845 C.ar    1  UNL1        0.0045
     22 C         141.7804  139.7094  168.4415 C.ar    1  UNL1        0.0519
     23 C         140.6790  140.6758  168.7625 C.ar    1  UNL1        0.1808
     24 C         140.2167  141.6572  167.7266 C.ar    1  UNL1        0.0535
     25 S         140.0399  140.6607  170.1195 S.O     1  UNL1        0.0581
     26 C         140.8600  140.9647  171.3382 C.3     1  UNL1        0.3254
     27 O         138.5808  140.3417  170.2578 O.co2   1  UNL1       -0.6774
@<TRIPOS>UNITY_ATOM_ATTR
17 1
charge 1
18 1
charge -1
25 1
charge 1
27 1
charge -1
@<TRIPOS>BOND
     1    16    17    1
     2    17    18    2
     3    17    10    1
     4    10    11   ar
     5    11    12   ar
     6    12    13   ar
     7    13     1    1
     8     1     2   ar
     9     2     3   ar
    10     3     4   ar
    11     4     5   ar
    12     5     6   ar
    13     6     7   ar
    14     7    19    1
    15    19    20   ar
    16    20    21   ar
    17    21    22   ar
    18    22    23   ar
    19    23    25    1
    20    25    26    1
    21    25    27    2
    22    23    24   ar
    23     7     8   ar
    24     8     9   ar
    25    13    14   ar
    26    14    15   ar
    27    15    10   ar
    28     9     1   ar
    29     9     4   ar
    30    24    19   ar
@<TRIPOS>MOLECULE
*****
 27 30 0 0 0
SMALL
GASTEIGER

@<TRIPOS>ATOM
      1 C         142.5290  142.3135  161.3273 C.ar    1  UNL1        0.1035
      2 C         143.8793  142.8993  161.0384 C.ar    1  UNL1        0.1197
      3 N         144.6580  142.9231  162.3202 N.ar    1  UNL1       -0.2234
      4 C         143.7891  142.3519  163.4012 C.ar    1  UNL1        0.1639
      5 C         144.0260  142.1262  164.8651 C.ar    1  UNL1        0.0404
      6 C         142.9470  141.5238  165.7153 C.ar    1  UNL1        0.0240
      7 C         141.6312  141.1470  165.1016 C.ar    1  UNL1        0.1016
      8 N         141.3943  141.3727  163.6378 N.ar    1  UNL1       -0.1638
      9 N         142.4732  141.9752  162.7876 N.ar    1  UNL1       -0.2107
     10 C         139.2252  141.6818  158.3378 C.ar    1  UNL1        0.1807
     11 C         139.8489  140.5042  159.0264 C.ar    1  UNL1        0.0520
     12 C         140.9502  140.7148  160.0229 C.ar    1  UNL1        0.0060
     13 C         141.4277  142.1029  160.3308 C.ar    1  UNL1        0.0196
     14 C         140.8040  143.2806  159.6422 C.ar    1  UNL1        0.0060
     15 C         139.7028  143.0700  158.6457 C.ar    1  UNL1        0.0520
     16 C         137.3697  142.6481  156.7972 C.3     1  UNL1        0.3254
     17 S         138.1240  141.4713  157.3414 S.O     1  UNL1        0.0581
     18 O         137.7770  140.0838  156.8892 O.co2   1  UNL1       -0.6774
     19 C         140.5522  140.5445  165.9519 C.ar    1  UNL1        0.0237
     20 C         139.4816  139.7044  165.3211 C.ar    1  UNL1        0.0018
     21 C         138.4026  139.1019  166.1714 C.ar    1  UNL1        0.0045
     22 C         138.3943  139.3396  167.6524 C.ar    1  UNL1        0.0519
     23 C         139.4650  140.1797  168.2832 C.ar    1  UNL1        0.1808
     24 C         140.5439  140.7822  167.4329 C.ar    1  UNL1        0.0535
     25 S         139.4568  140.4174  169.7642 S.O     1  UNL1        0.0581
     26 C         140.4663  141.3394  170.3815 C.3     1  UNL1        0.3254
     27 O         138.4391  139.7332  170.6279 O.co2   1  UNL1       -0.6774
@<TRIPOS>UNITY_ATOM_ATTR
17 1
charge 1
18 1
charge -1
25 1
charge 1
27 1
charge -1
@<TRIPOS>BOND
     1    16    17    1
     2    17    18    2
     3    17    10    1
     4    10    11   ar
     5    11    12   ar
     6    12    13   ar
     7    13     1    1
     8     1     2   ar
     9     2     3   ar
    10     3     4   ar
    11     4     5   ar
    12     5     6   ar
    13     6     7   ar
    14     7    19    1
    15    19    20   ar
    16    20    21   ar
    17    21    22   ar
    18    22    23   ar
    19    23    25    1
    20    25    26    1
    21    25    27    2
    22    23    24   ar
    23     7     8   ar
    24     8     9   ar
    25    13    14   ar
    26    14    15   ar
    27    15    10   ar
    28     9     1   ar
    29     9     4   ar
    30    24    19   ar
@<TRIPOS>MOLECULE
*****
 27 30 0 0 0
SMALL
GASTEIGER

@<TRIPOS>ATOM
      1 C         142.7338  142.7602  161.9901 C.ar    1  UNL1        0.1035
      2 C         144.0046  143.4769  161.6417 C.ar    1  UNL1        0.1197
      3 N         144.7628  143.7205  162.9129 N.ar    1  UNL1       -0.2234
      4 C         143.9606  143.1543  164.0469 C.ar    1  UNL1        0.1639
      5 C         144.2100  143.1026  165.5251 C.ar    1  UNL1        0.0404
      6 C         143.2054  142.4573  166.4330 C.ar    1  UNL1        0.0240
      7 C         141.9514  141.8638  165.8627 C.ar    1  UNL1        0.1016
      8 N         141.7020  141.9155  164.3845 N.ar    1  UNL1       -0.1638
      9 N         142.7066  142.5608  163.4766 N.ar    1  UNL1       -0.2107
     10 C         139.5601  141.4399  159.0859 C.ar    1  UNL1        0.1807
     11 C         140.2901  140.4231  159.9125 C.ar    1  UNL1        0.0520
     12 C         141.3480  140.8633  160.8806 C.ar    1  UNL1        0.0060
     13 C         141.6759  142.3201  161.0221 C.ar    1  UNL1        0.0196
     14 C         140.9459  143.3369  160.1954 C.ar    1  UNL1        0.0060
     15 C         139.8880  142.8967  159.2274 C.ar    1  UNL1        0.0520
     16 C         137.5772  142.0104  157.5071 C.3     1  UNL1        0.3254
     17 S         138.5022  140.9998  158.1178 S.O     1  UNL1        0.0581
     18 O         138.3694  139.5490  157.7606 O.co2   1  UNL1       -0.6774
     19 C         140.9468  141.2185  166.7707 C.ar    1  UNL1        0.0237
     20 C         140.8249  141.6701  168.1958 C.ar    1  UNL1        0.0018
     21 C         139.8202  141.0248  169.1038 C.ar    1  UNL1        0.0045
     22 C         138.9375  139.9279  168.5866 C.ar    1  UNL1        0.0519
     23 C         139.0595  139.4763  167.1613 C.ar    1  UNL1        0.1808
     24 C         140.0640  140.1216  166.2534 C.ar    1  UNL1        0.0535
     25 S         138.1767  138.3793  166.6441 S.O     1  UNL1        0.0581
     26 C         138.5145  137.6895  165.3556 C.3     1  UNL1        0.3254
     27 O         136.9563  137.9722  167.4152 O.co2   1  UNL1       -0.6774
@<TRIPOS>UNITY_ATOM_ATTR
17 1
charge 1
18 1
charge -1
25 1
charge 1
27 1
charge -1
@<TRIPOS>BOND
     1    16    17    1
     2    17    18    2
     3    17    10    1
     4    10    11   ar
     5    11    12   ar
     6    12    13   ar
     7    13     1    1
     8     1     2   ar
     9     2     3   ar
    10     3     4   ar
    11     4     5   ar
    12     5     6   ar
    13     6     7   ar
    14     7    19    1
    15    19    20   ar
    16    20    21   ar
    17    21    22   ar
    18    22    23   ar
    19    23    25    1
    20    25    26    1
    21    25    27    2
    22    23    24   ar
    23     7     8   ar
    24     8     9   ar
    25    13    14   ar
    26    14    15   ar
    27    15    10   ar
    28     9     1   ar
    29     9     4   ar
    30    24    19   ar
