@<TRIPOS>MOLECULE
*****
 33 35 0 0 0
SMALL
GASTEIGER

@<TRIPOS>ATOM
      1 C         139.1844  140.0291  163.1134 C.ar    1  UNL1        0.2699
      2 C         139.0978  138.5894  162.7014 C.ar    1  UNL1        0.0787
      3 C         139.0329  137.5134  163.7444 C.ar    1  UNL1        0.0136
      4 C         139.0547  137.8770  165.1995 C.ar    1  UNL1        0.0787
      5 C         139.1413  139.3167  165.6116 C.ar    1  UNL1        0.2699
      6 N         139.2061  140.3928  164.5685 N.ar    1  UNL1       -0.1494
      7 C         139.2927  141.8324  164.9805 C.3     1  UNL1        0.4092
      8 C         139.3141  142.1811  161.0273 C.1     1  UNL1       -0.0482
      9 C         139.2492  141.1051  162.0703 C.1     1  UNL1        0.0064
     10 C         139.3789  143.2571  159.9842 C.3     1  UNL1        0.2183
     11 O         139.3980  144.6997  160.3950 O.3     1  UNL1       -0.3397
     12 C         140.6871  145.3440  160.8112 C.3     1  UNL1        0.1482
     13 C         141.1276  145.2835  162.2437 C.3     1  UNL1        0.0584
     14 C         145.7801  141.8328  163.8083 C.3     1  UNL1        0.0310
     15 C         144.6170  142.6955  163.4172 C.ar    1  UNL1       -0.0219
     16 C         144.1749  143.8115  164.3167 C.ar    1  UNL1       -0.0046
     17 C         143.0118  144.6741  163.9255 C.ar    1  UNL1       -0.0045
     18 C         142.2907  144.4208  162.6348 C.ar    1  UNL1       -0.0197
     19 C         142.7328  143.3048  161.7354 C.ar    1  UNL1       -0.0045
     20 C         143.8959  142.4421  162.1265 C.ar    1  UNL1       -0.0046
     21 C         139.1630  139.6804  167.0666 C.1     1  UNL1        0.0064
     22 C         139.1847  140.0440  168.5217 C.1     1  UNL1       -0.0482
     23 C         139.2064  140.4077  169.9768 C.3     1  UNL1        0.2183
     24 O         140.3929  140.0495  170.8218 O.3     1  UNL1       -0.3397
     25 C         141.4748  141.0602  171.0626 C.3     1  UNL1        0.1482
     26 C         142.7662  140.9714  170.3048 C.3     1  UNL1        0.0584
     27 C         142.7548  140.6637  168.8367 C.ar    1  UNL1       -0.0197
     28 C         142.8010  139.2394  168.3685 C.ar    1  UNL1       -0.0045
     29 C         142.7896  138.9317  166.9005 C.ar    1  UNL1       -0.0046
     30 C         142.7318  140.0483  165.9006 C.ar    1  UNL1       -0.0219
     31 C         142.7203  139.7406  164.4325 C.3     1  UNL1        0.0310
     32 C         142.6855  141.4726  166.3688 C.ar    1  UNL1       -0.0046
     33 C         142.6970  141.7803  167.8368 C.ar    1  UNL1       -0.0045
@<TRIPOS>UNITY_ATOM_ATTR
6 1
charge 1
@<TRIPOS>BOND
     1    14    15    1
     2    15    16   ar
     3    16    17   ar
     4    17    18   ar
     5    18    13    1
     6    13    12    1
     7    12    11    1
     8    11    10    1
     9    10     8    1
    10     8     9    3
    11     9     1    1
    12     1     2   ar
    13     2     3   ar
    14     3     4   ar
    15     4     5   ar
    16     5    21    1
    17    21    22    3
    18    22    23    1
    19    23    24    1
    20    24    25    1
    21    25    26    1
    22    26    27    1
    23    27    28   ar
    24    28    29   ar
    25    29    30   ar
    26    30    31    1
    27    30    32   ar
    28    32    33   ar
    29     5     6   ar
    30     6     7    1
    31    18    19   ar
    32    19    20   ar
    33    20    15   ar
    34     6     1   ar
    35    33    27   ar
@<TRIPOS>MOLECULE
*****
 33 35 0 0 0
SMALL
GASTEIGER

@<TRIPOS>ATOM
      1 C         139.1099  139.2869  165.7278 C.ar    1  UNL1        0.2699
      2 C         139.0719  137.8399  165.3349 C.ar    1  UNL1        0.0787
      3 C         139.0602  137.4565  163.8847 C.ar    1  UNL1        0.0136
      4 C         139.0865  138.5203  162.8276 C.ar    1  UNL1        0.0787
      5 C         139.1244  139.9674  163.2205 C.ar    1  UNL1        0.2699
      6 N         139.1361  140.3508  164.6706 N.ar    1  UNL1       -0.1494
      7 C         139.1740  141.7979  165.0636 C.3     1  UNL1        0.4092
      8 C         139.1332  140.0536  168.6281 C.1     1  UNL1       -0.0482
      9 C         139.1215  139.6703  167.1780 C.1     1  UNL1        0.0064
     10 C         139.1449  140.4370  170.0783 C.3     1  UNL1        0.2183
     11 O         140.3655  140.1812  170.9118 O.3     1  UNL1       -0.3397
     12 C         141.4002  141.2548  171.0757 C.3     1  UNL1        0.1482
     13 C         142.6897  141.1762  170.3136 C.3     1  UNL1        0.0584
     14 C         142.6557  139.6645  164.5073 C.3     1  UNL1        0.0310
     15 C         142.6642  140.0424  165.9589 C.ar    1  UNL1       -0.0219
     16 C         142.5386  141.4824  166.3597 C.ar    1  UNL1       -0.0046
     17 C         142.5471  141.8603  167.8113 C.ar    1  UNL1       -0.0045
     18 C         142.6812  140.7983  168.8620 C.ar    1  UNL1       -0.0197
     19 C         142.8069  139.3584  168.4612 C.ar    1  UNL1       -0.0045
     20 C         142.7984  138.9804  167.0096 C.ar    1  UNL1       -0.0046
     21 C         139.1507  141.0312  162.1633 C.1     1  UNL1        0.0064
     22 C         139.1769  142.0949  161.1061 C.1     1  UNL1       -0.0482
     23 C         139.2031  143.1587  160.0488 C.3     1  UNL1        0.2183
     24 O         139.4587  144.5872  160.4284 O.3     1  UNL1       -0.3397
     25 C         139.6881  144.9519  161.8652 C.3     1  UNL1        0.1482
     26 C         140.9951  145.5555  162.2863 C.3     1  UNL1        0.0584
     27 C         142.1315  144.6687  162.7017 C.ar    1  UNL1       -0.0197
     28 C         142.9602  145.0237  163.9005 C.ar    1  UNL1       -0.0045
     29 C         144.0965  144.1370  164.3159 C.ar    1  UNL1       -0.0046
     30 C         144.4041  142.8954  163.5325 C.ar    1  UNL1       -0.0219
     31 C         145.5404  142.0087  163.9479 C.3     1  UNL1        0.0310
     32 C         143.5753  142.5405  162.3336 C.ar    1  UNL1       -0.0046
     33 C         142.4390  143.4272  161.9182 C.ar    1  UNL1       -0.0045
@<TRIPOS>UNITY_ATOM_ATTR
6 1
charge 1
@<TRIPOS>BOND
     1    14    15    1
     2    15    16   ar
     3    16    17   ar
     4    17    18   ar
     5    18    13    1
     6    13    12    1
     7    12    11    1
     8    11    10    1
     9    10     8    1
    10     8     9    3
    11     9     1    1
    12     1     2   ar
    13     2     3   ar
    14     3     4   ar
    15     4     5   ar
    16     5    21    1
    17    21    22    3
    18    22    23    1
    19    23    24    1
    20    24    25    1
    21    25    26    1
    22    26    27    1
    23    27    28   ar
    24    28    29   ar
    25    29    30   ar
    26    30    31    1
    27    30    32   ar
    28    32    33   ar
    29     5     6   ar
    30     6     7    1
    31    18    19   ar
    32    19    20   ar
    33    20    15   ar
    34     6     1   ar
    35    33    27   ar
@<TRIPOS>MOLECULE
*****
 33 35 0 0 0
SMALL
GASTEIGER

@<TRIPOS>ATOM
      1 C         140.6497  138.5688  163.3024 C.ar    1  UNL1        0.2699
      2 C         139.4654  137.6491  163.2624 C.ar    1  UNL1        0.0787
      3 C         138.4469  137.7850  162.1696 C.ar    1  UNL1        0.0136
      4 C         138.6126  138.8405  161.1169 C.ar    1  UNL1        0.0787
      5 C         139.7969  139.7603  161.1569 C.ar    1  UNL1        0.2699
      6 N         140.8155  139.6244  162.2496 N.ar    1  UNL1       -0.1494
      7 C         141.9998  140.5441  162.2896 C.3     1  UNL1        0.4092
      8 C         142.6868  138.2971  165.4878 C.1     1  UNL1       -0.0482
      9 C         141.6683  138.4329  164.3951 C.1     1  UNL1        0.0064
     10 C         143.7054  138.1612  166.5806 C.3     1  UNL1        0.2183
     11 O         143.3380  138.5005  167.9948 O.3     1  UNL1       -0.3397
     12 C         142.6868  139.8156  168.3055 C.3     1  UNL1        0.1482
     13 C         141.2010  139.8901  168.4969 C.3     1  UNL1        0.0584
     14 C         137.6342  141.1315  163.8346 C.3     1  UNL1        0.0310
     15 C         138.5259  140.8212  165.0002 C.ar    1  UNL1       -0.0219
     16 C         138.1590  139.7229  165.9536 C.ar    1  UNL1       -0.0046
     17 C         139.0507  139.4126  167.1192 C.ar    1  UNL1       -0.0045
     18 C         140.3093  140.2005  167.3313 C.ar    1  UNL1       -0.0197
     19 C         140.6762  141.2988  166.3779 C.ar    1  UNL1       -0.0045
     20 C         139.7845  141.6091  165.2123 C.ar    1  UNL1       -0.0046
     21 C         139.9626  140.8158  160.1041 C.1     1  UNL1        0.0064
     22 C         140.1284  141.8714  159.0514 C.1     1  UNL1       -0.0482
     23 C         140.2941  142.9270  157.9986 C.3     1  UNL1        0.2183
     24 O         139.9666  144.3568  158.3122 O.3     1  UNL1       -0.3397
     25 C         140.9473  145.2022  159.0695 C.3     1  UNL1        0.1482
     26 C         141.5730  144.6792  160.3284 C.3     1  UNL1        0.0584
     27 C         140.8167  144.7383  161.6225 C.ar    1  UNL1       -0.0197
     28 C         141.5554  144.9202  162.9153 C.ar    1  UNL1       -0.0045
     29 C         140.7992  144.9793  164.2093 C.ar    1  UNL1       -0.0046
     30 C         139.3042  144.8566  164.2106 C.ar    1  UNL1       -0.0219
     31 C         138.5479  144.9157  165.5047 C.3     1  UNL1        0.0310
     32 C         138.5655  144.6748  162.9178 C.ar    1  UNL1       -0.0046
     33 C         139.3218  144.6156  161.6238 C.ar    1  UNL1       -0.0045
@<TRIPOS>UNITY_ATOM_ATTR
6 1
charge 1
@<TRIPOS>BOND
     1    14    15    1
     2    15    16   ar
     3    16    17   ar
     4    17    18   ar
     5    18    13    1
     6    13    12    1
     7    12    11    1
     8    11    10    1
     9    10     8    1
    10     8     9    3
    11     9     1    1
    12     1     2   ar
    13     2     3   ar
    14     3     4   ar
    15     4     5   ar
    16     5    21    1
    17    21    22    3
    18    22    23    1
    19    23    24    1
    20    24    25    1
    21    25    26    1
    22    26    27    1
    23    27    28   ar
    24    28    29   ar
    25    29    30   ar
    26    30    31    1
    27    30    32   ar
    28    32    33   ar
    29     5     6   ar
    30     6     7    1
    31    18    19   ar
    32    19    20   ar
    33    20    15   ar
    34     6     1   ar
    35    33    27   ar
@<TRIPOS>MOLECULE
*****
 33 35 0 0 0
SMALL
GASTEIGER

@<TRIPOS>ATOM
      1 C         142.1903  138.6163  164.9300 C.ar    1  UNL1        0.2699
      2 C         141.4634  137.3557  164.5661 C.ar    1  UNL1        0.0787
      3 C         141.2097  137.0255  163.1251 C.ar    1  UNL1        0.0136
      4 C         141.6830  137.9559  162.0479 C.ar    1  UNL1        0.0787
      5 C         142.4100  139.2166  162.4118 C.ar    1  UNL1        0.2699
      6 N         142.6637  139.5467  163.8528 N.ar    1  UNL1       -0.1494
      7 C         143.3906  140.8073  164.2167 C.3     1  UNL1        0.4092
      8 C         142.6977  139.2766  167.8121 C.1     1  UNL1       -0.0482
      9 C         142.4440  138.9464  166.3711 C.1     1  UNL1        0.0064
     10 C         142.9514  139.6068  169.2532 C.3     1  UNL1        0.2183
     11 O         141.9043  140.3223  170.0542 O.3     1  UNL1       -0.3397
     12 C         140.4506  140.0778  169.7768 C.3     1  UNL1        0.1482
     13 C         139.6968  140.9968  168.8618 C.3     1  UNL1        0.0584
     14 C         138.3826  139.2516  163.2737 C.3     1  UNL1        0.0310
     15 C         138.7111  139.6879  164.6707 C.ar    1  UNL1       -0.0219
     16 C         139.4506  140.9724  164.9009 C.ar    1  UNL1       -0.0046
     17 C         139.7792  141.4087  166.2979 C.ar    1  UNL1       -0.0045
     18 C         139.3682  140.5605  167.4648 C.ar    1  UNL1       -0.0197
     19 C         138.6288  139.2759  167.2346 C.ar    1  UNL1       -0.0045
     20 C         138.3002  138.8396  165.8376 C.ar    1  UNL1       -0.0046
     21 C         142.8832  140.1470  161.3346 C.1     1  UNL1        0.0064
     22 C         143.3565  141.0774  160.2574 C.1     1  UNL1       -0.0482
     23 C         143.8298  142.0078  159.1802 C.3     1  UNL1        0.2183
     24 O         143.4231  143.4514  159.2040 O.3     1  UNL1       -0.3397
     25 C         142.2271  143.8806  160.0011 C.3     1  UNL1        0.1482
     26 C         142.3779  144.2247  161.4533 C.3     1  UNL1        0.0584
     27 C         141.1717  144.2617  162.3444 C.ar    1  UNL1       -0.0197
     28 C         139.8214  143.9105  161.7937 C.ar    1  UNL1       -0.0045
     29 C         138.6153  143.9475  162.6847 C.ar    1  UNL1       -0.0046
     30 C         138.7596  144.3358  164.1264 C.ar    1  UNL1       -0.0219
     31 C         137.5534  144.3729  165.0175 C.3     1  UNL1        0.0310
     32 C         140.1099  144.6871  164.6770 C.ar    1  UNL1       -0.0046
     33 C         141.3160  144.6500  163.7860 C.ar    1  UNL1       -0.0045
@<TRIPOS>UNITY_ATOM_ATTR
6 1
charge 1
@<TRIPOS>BOND
     1    14    15    1
     2    15    16   ar
     3    16    17   ar
     4    17    18   ar
     5    18    13    1
     6    13    12    1
     7    12    11    1
     8    11    10    1
     9    10     8    1
    10     8     9    3
    11     9     1    1
    12     1     2   ar
    13     2     3   ar
    14     3     4   ar
    15     4     5   ar
    16     5    21    1
    17    21    22    3
    18    22    23    1
    19    23    24    1
    20    24    25    1
    21    25    26    1
    22    26    27    1
    23    27    28   ar
    24    28    29   ar
    25    29    30   ar
    26    30    31    1
    27    30    32   ar
    28    32    33   ar
    29     5     6   ar
    30     6     7    1
    31    18    19   ar
    32    19    20   ar
    33    20    15   ar
    34     6     1   ar
    35    33    27   ar
@<TRIPOS>MOLECULE
*****
 33 35 0 0 0
SMALL
GASTEIGER

@<TRIPOS>ATOM
      1 C         139.1346  139.0063  165.5815 C.ar    1  UNL1        0.2699
      2 C         139.2075  137.5212  165.3836 C.ar    1  UNL1        0.0787
      3 C         139.1476  136.9451  163.9999 C.ar    1  UNL1        0.0136
      4 C         139.0147  137.8541  162.8142 C.ar    1  UNL1        0.0787
      5 C         138.9418  139.3393  163.0121 C.ar    1  UNL1        0.2699
      6 N         139.0017  139.9154  164.3957 N.ar    1  UNL1       -0.1494
      7 C         138.9288  141.4004  164.5936 C.3     1  UNL1        0.4092
      8 C         139.2544  140.1584  168.3489 C.1     1  UNL1       -0.0482
      9 C         139.1945  139.5824  166.9652 C.1     1  UNL1        0.0064
     10 C         139.3143  140.7345  169.7325 C.3     1  UNL1        0.2183
     11 O         140.2002  141.9111  170.0174 O.3     1  UNL1       -0.3397
     12 C         141.6699  141.7073  170.2376 C.3     1  UNL1        0.1482
     13 C         142.6441  142.0316  169.1441 C.3     1  UNL1        0.0584
     14 C         142.6539  138.8104  164.0821 C.3     1  UNL1        0.0310
     15 C         142.6515  139.6157  165.3476 C.ar    1  UNL1       -0.0219
     16 C         142.4825  141.1050  165.2886 C.ar    1  UNL1       -0.0046
     17 C         142.4801  141.9103  166.5541 C.ar    1  UNL1       -0.0045
     18 C         142.6466  141.2263  167.8786 C.ar    1  UNL1       -0.0197
     19 C         142.8156  139.7371  167.9376 C.ar    1  UNL1       -0.0045
     20 C         142.8180  138.9318  166.6721 C.ar    1  UNL1       -0.0046
     21 C         138.8090  140.2483  161.8263 C.1     1  UNL1        0.0064
     22 C         138.6762  141.1572  160.6406 C.1     1  UNL1       -0.0482
     23 C         138.5433  142.0663  159.4548 C.3     1  UNL1        0.2183
     24 O         139.7664  142.6756  158.8361 O.3     1  UNL1       -0.3397
     25 C         140.3166  143.9634  159.3737 C.3     1  UNL1        0.1482
     26 C         141.1429  143.9614  160.6256 C.3     1  UNL1        0.0584
     27 C         140.4985  144.2452  161.9501 C.ar    1  UNL1       -0.0197
     28 C         141.3330  144.2909  163.1957 C.ar    1  UNL1       -0.0045
     29 C         140.6886  144.5748  164.5201 C.ar    1  UNL1       -0.0046
     30 C         139.2097  144.8129  164.5990 C.ar    1  UNL1       -0.0219
     31 C         138.5653  145.0967  165.9234 C.3     1  UNL1        0.0310
     32 C         138.3753  144.7671  163.3533 C.ar    1  UNL1       -0.0046
     33 C         139.0196  144.4833  162.0289 C.ar    1  UNL1       -0.0045
@<TRIPOS>UNITY_ATOM_ATTR
6 1
charge 1
@<TRIPOS>BOND
     1    14    15    1
     2    15    16   ar
     3    16    17   ar
     4    17    18   ar
     5    18    13    1
     6    13    12    1
     7    12    11    1
     8    11    10    1
     9    10     8    1
    10     8     9    3
    11     9     1    1
    12     1     2   ar
    13     2     3   ar
    14     3     4   ar
    15     4     5   ar
    16     5    21    1
    17    21    22    3
    18    22    23    1
    19    23    24    1
    20    24    25    1
    21    25    26    1
    22    26    27    1
    23    27    28   ar
    24    28    29   ar
    25    29    30   ar
    26    30    31    1
    27    30    32   ar
    28    32    33   ar
    29     5     6   ar
    30     6     7    1
    31    18    19   ar
    32    19    20   ar
    33    20    15   ar
    34     6     1   ar
    35    33    27   ar
@<TRIPOS>MOLECULE
*****
 33 35 0 0 0
SMALL
GASTEIGER

@<TRIPOS>ATOM
      1 C         142.7965  141.7918  160.7957 C.ar    1  UNL1        0.2699
      2 C         144.0098  142.6270  160.5123 C.ar    1  UNL1        0.0787
      3 C         145.1998  142.5542  161.4225 C.ar    1  UNL1        0.0136
      4 C         145.1766  141.6461  162.6162 C.ar    1  UNL1        0.0787
      5 C         143.9633  140.8109  162.8997 C.ar    1  UNL1        0.2699
      6 N         142.7733  140.8837  161.9895 N.ar    1  UNL1       -0.1494
      7 C         141.5600  140.0485  162.2729 C.3     1  UNL1        0.4092
      8 C         140.4165  141.9375  158.9753 C.1     1  UNL1       -0.0482
      9 C         141.6065  141.8647  159.8855 C.1     1  UNL1        0.0064
     10 C         139.2264  142.0104  158.0651 C.3     1  UNL1        0.2183
     11 O         138.2310  140.8884  158.0407 O.3     1  UNL1       -0.3397
     12 C         138.2303  139.8626  159.1351 C.3     1  UNL1        0.1482
     13 C         137.3013  140.0128  160.3032 C.3     1  UNL1        0.0584
     14 C         139.1823  138.6272  165.8297 C.3     1  UNL1        0.0310
     15 C         138.7121  138.9736  164.4481 C.ar    1  UNL1       -0.0219
     16 C         138.7375  137.9361  163.3650 C.ar    1  UNL1       -0.0046
     17 C         138.2672  138.2825  161.9834 C.ar    1  UNL1       -0.0045
     18 C         137.7716  139.6664  161.6848 C.ar    1  UNL1       -0.0197
     19 C         137.7462  140.7038  162.7679 C.ar    1  UNL1       -0.0045
     20 C         138.2164  140.3574  164.1495 C.ar    1  UNL1       -0.0046
     21 C         143.9401  139.9028  164.0933 C.1     1  UNL1        0.0064
     22 C         143.9169  138.9948  165.2870 C.1     1  UNL1       -0.0482
     23 C         143.8937  138.0867  166.4807 C.3     1  UNL1        0.2183
     24 O         143.3516  138.5814  167.7889 O.3     1  UNL1       -0.3397
     25 C         142.2705  139.6210  167.8078 C.3     1  UNL1        0.1482
     26 C         142.6273  141.0717  167.9422 C.3     1  UNL1        0.0584
     27 C         142.5703  141.9723  166.7439 C.ar    1  UNL1       -0.0197
     28 C         141.3218  142.0399  165.9152 C.ar    1  UNL1       -0.0045
     29 C         141.2648  142.9403  164.7170 C.ar    1  UNL1       -0.0046
     30 C         142.4563  143.7732  164.3474 C.ar    1  UNL1       -0.0219
     31 C         142.3994  144.6737  163.1490 C.3     1  UNL1        0.0310
     32 C         143.7048  143.7055  165.1760 C.ar    1  UNL1       -0.0046
     33 C         143.7618  142.8051  166.3743 C.ar    1  UNL1       -0.0045
@<TRIPOS>UNITY_ATOM_ATTR
6 1
charge 1
@<TRIPOS>BOND
     1    14    15    1
     2    15    16   ar
     3    16    17   ar
     4    17    18   ar
     5    18    13    1
     6    13    12    1
     7    12    11    1
     8    11    10    1
     9    10     8    1
    10     8     9    3
    11     9     1    1
    12     1     2   ar
    13     2     3   ar
    14     3     4   ar
    15     4     5   ar
    16     5    21    1
    17    21    22    3
    18    22    23    1
    19    23    24    1
    20    24    25    1
    21    25    26    1
    22    26    27    1
    23    27    28   ar
    24    28    29   ar
    25    29    30   ar
    26    30    31    1
    27    30    32   ar
    28    32    33   ar
    29     5     6   ar
    30     6     7    1
    31    18    19   ar
    32    19    20   ar
    33    20    15   ar
    34     6     1   ar
    35    33    27   ar
@<TRIPOS>MOLECULE
*****
 33 35 0 0 0
SMALL
GASTEIGER

@<TRIPOS>ATOM
      1 C         139.4537  139.3607  163.0178 C.ar    1  UNL1        0.2699
      2 C         139.1746  137.9047  162.7899 C.ar    1  UNL1        0.0787
      3 C         138.9002  137.0021  163.9561 C.ar    1  UNL1        0.0136
      4 C         138.9051  137.5555  165.3503 C.ar    1  UNL1        0.0787
      5 C         139.1842  139.0116  165.5782 C.ar    1  UNL1        0.2699
      6 N         139.4586  139.9142  164.4120 N.ar    1  UNL1       -0.1494
      7 C         139.7377  141.3703  164.6400 C.3     1  UNL1        0.4092
      8 C         140.0024  141.1660  160.6854 C.1     1  UNL1       -0.0482
      9 C         139.7281  140.2633  161.8516 C.1     1  UNL1        0.0064
     10 C         140.2767  142.0686  159.5192 C.3     1  UNL1        0.2183
     11 O         141.6878  142.4481  159.1803 O.3     1  UNL1       -0.3397
     12 C         142.3685  143.5531  159.9323 C.3     1  UNL1        0.1482
     13 C         141.5954  144.7742  160.3338 C.3     1  UNL1        0.0584
     14 C         138.7043  144.9008  165.5898 C.3     1  UNL1        0.0310
     15 C         139.4271  144.8692  164.2758 C.ar    1  UNL1       -0.0219
     16 C         140.9265  144.8422  164.2451 C.ar    1  UNL1       -0.0046
     17 C         141.6493  144.8105  162.9311 C.ar    1  UNL1       -0.0045
     18 C         140.8726  144.8058  161.6478 C.ar    1  UNL1       -0.0197
     19 C         139.3732  144.8328  161.6786 C.ar    1  UNL1       -0.0045
     20 C         138.6504  144.8645  162.9926 C.ar    1  UNL1       -0.0046
     21 C         139.1890  139.5650  166.9724 C.1     1  UNL1        0.0064
     22 C         139.1939  140.1184  168.3665 C.1     1  UNL1       -0.0482
     23 C         139.1987  140.6719  169.7607 C.3     1  UNL1        0.2183
     24 O         140.0888  141.8291  170.1051 O.3     1  UNL1       -0.3397
     25 C         141.3203  141.6078  170.9323 C.3     1  UNL1        0.1482
     26 C         142.6610  141.5020  170.2679 C.3     1  UNL1        0.0584
     27 C         142.7591  141.0279  168.8481 C.ar    1  UNL1       -0.0197
     28 C         142.7594  139.5586  168.5463 C.ar    1  UNL1       -0.0045
     29 C         142.8575  139.0845  167.1266 C.ar    1  UNL1       -0.0046
     30 C         142.9553  140.0798  166.0087 C.ar    1  UNL1       -0.0219
     31 C         143.0534  139.6057  164.5889 C.3     1  UNL1        0.0310
     32 C         142.9549  141.5491  166.3105 C.ar    1  UNL1       -0.0046
     33 C         142.8568  142.0232  167.7302 C.ar    1  UNL1       -0.0045
@<TRIPOS>UNITY_ATOM_ATTR
6 1
charge 1
@<TRIPOS>BOND
     1    14    15    1
     2    15    16   ar
     3    16    17   ar
     4    17    18   ar
     5    18    13    1
     6    13    12    1
     7    12    11    1
     8    11    10    1
     9    10     8    1
    10     8     9    3
    11     9     1    1
    12     1     2   ar
    13     2     3   ar
    14     3     4   ar
    15     4     5   ar
    16     5    21    1
    17    21    22    3
    18    22    23    1
    19    23    24    1
    20    24    25    1
    21    25    26    1
    22    26    27    1
    23    27    28   ar
    24    28    29   ar
    25    29    30   ar
    26    30    31    1
    27    30    32   ar
    28    32    33   ar
    29     5     6   ar
    30     6     7    1
    31    18    19   ar
    32    19    20   ar
    33    20    15   ar
    34     6     1   ar
    35    33    27   ar
@<TRIPOS>MOLECULE
*****
 33 35 0 0 0
SMALL
GASTEIGER

@<TRIPOS>ATOM
      1 C         139.4865  139.9276  161.0345 C.ar    1  UNL1        0.2699
      2 C         138.3287  138.9763  160.9669 C.ar    1  UNL1        0.0787
      3 C         138.1783  137.9031  162.0039 C.ar    1  UNL1        0.0136
      4 C         139.1856  137.7811  163.1086 C.ar    1  UNL1        0.0787
      5 C         140.3434  138.7325  163.1763 C.ar    1  UNL1        0.2699
      6 N         140.4938  139.8058  162.1392 N.ar    1  UNL1       -0.1494
      7 C         141.6515  140.7571  162.2069 C.3     1  UNL1        0.4092
      8 C         139.7873  142.0741  158.9603 C.1     1  UNL1       -0.0482
      9 C         139.6369  141.0009  159.9974 C.1     1  UNL1        0.0064
     10 C         139.9377  143.1474  157.9233 C.3     1  UNL1        0.2183
     11 O         140.9793  144.2134  158.0928 O.3     1  UNL1       -0.3397
     12 C         140.7165  145.3818  158.9961 C.3     1  UNL1        0.1482
     13 C         140.2229  145.1529  160.3939 C.3     1  UNL1        0.0584
     14 C         144.1239  143.9758  164.7981 C.3     1  UNL1        0.0310
     15 C         143.1487  144.2701  163.6971 C.ar    1  UNL1       -0.0219
     16 C         141.8467  144.9462  164.0093 C.ar    1  UNL1       -0.0046
     17 C         140.8714  145.2405  162.9082 C.ar    1  UNL1       -0.0045
     18 C         141.1982  144.8586  161.4950 C.ar    1  UNL1       -0.0197
     19 C         142.5002  144.1825  161.1828 C.ar    1  UNL1       -0.0045
     20 C         143.4754  143.8882  162.2838 C.ar    1  UNL1       -0.0046
     21 C         141.3507  138.6106  164.2810 C.1     1  UNL1        0.0064
     22 C         142.3581  138.4887  165.3857 C.1     1  UNL1       -0.0482
     23 C         143.3655  138.3668  166.4905 C.3     1  UNL1        0.2183
     24 O         143.3606  139.3516  167.6219 O.3     1  UNL1       -0.3397
     25 C         142.3353  139.2378  168.7108 C.3     1  UNL1        0.1482
     26 C         141.2276  140.2447  168.8062 C.3     1  UNL1        0.0584
     27 C         140.4075  140.5746  167.5943 C.ar    1  UNL1       -0.0197
     28 C         139.2313  139.7184  167.2289 C.ar    1  UNL1       -0.0045
     29 C         138.4112  140.0482  166.0170 C.ar    1  UNL1       -0.0046
     30 C         138.7673  141.2343  165.1706 C.ar    1  UNL1       -0.0219
     31 C         137.9472  141.5642  163.9587 C.3     1  UNL1        0.0310
     32 C         139.9435  142.0905  165.5360 C.ar    1  UNL1       -0.0046
     33 C         140.7636  141.7607  166.7479 C.ar    1  UNL1       -0.0045
@<TRIPOS>UNITY_ATOM_ATTR
6 1
charge 1
@<TRIPOS>BOND
     1    14    15    1
     2    15    16   ar
     3    16    17   ar
     4    17    18   ar
     5    18    13    1
     6    13    12    1
     7    12    11    1
     8    11    10    1
     9    10     8    1
    10     8     9    3
    11     9     1    1
    12     1     2   ar
    13     2     3   ar
    14     3     4   ar
    15     4     5   ar
    16     5    21    1
    17    21    22    3
    18    22    23    1
    19    23    24    1
    20    24    25    1
    21    25    26    1
    22    26    27    1
    23    27    28   ar
    24    28    29   ar
    25    29    30   ar
    26    30    31    1
    27    30    32   ar
    28    32    33   ar
    29     5     6   ar
    30     6     7    1
    31    18    19   ar
    32    19    20   ar
    33    20    15   ar
    34     6     1   ar
    35    33    27   ar
@<TRIPOS>MOLECULE
*****
 33 35 0 0 0
SMALL
GASTEIGER

@<TRIPOS>ATOM
      1 C         142.4300  142.7072  161.3398 C.ar    1  UNL1        0.2699
      2 C         143.7931  142.8763  160.7370 C.ar    1  UNL1        0.0787
      3 C         145.0041  142.9190  161.6210 C.ar    1  UNL1        0.0136
      4 C         144.8522  142.7926  163.1079 C.ar    1  UNL1        0.0787
      5 C         143.4891  142.6235  163.7108 C.ar    1  UNL1        0.2699
      6 N         142.2780  142.5808  162.8268 N.ar    1  UNL1       -0.1494
      7 C         140.9150  142.4116  163.4297 C.3     1  UNL1        0.4092
      8 C         140.0079  142.6218  159.5718 C.1     1  UNL1       -0.0482
      9 C         141.2190  142.6645  160.4558 C.1     1  UNL1        0.0064
     10 C         138.7968  142.5791  158.6878 C.3     1  UNL1        0.2183
     11 O         137.9967  141.3155  158.5724 O.3     1  UNL1       -0.3397
     12 C         137.9638  140.3418  159.7129 C.3     1  UNL1        0.1482
     13 C         137.7336  140.8325  161.1115 C.3     1  UNL1        0.0584
     14 C         138.9331  137.2595  165.7800 C.3     1  UNL1        0.0310
     15 C         138.6332  138.1528  164.6129 C.ar    1  UNL1       -0.0219
     16 C         138.2126  139.5738  164.8446 C.ar    1  UNL1       -0.0046
     17 C         137.9127  140.4670  163.6775 C.ar    1  UNL1       -0.0045
     18 C         138.0335  139.9393  162.2787 C.ar    1  UNL1       -0.0197
     19 C         138.4541  138.5183  162.0469 C.ar    1  UNL1       -0.0045
     20 C         138.7540  137.6250  163.2140 C.ar    1  UNL1       -0.0046
     21 C         143.3371  142.4971  165.1977 C.1     1  UNL1        0.0064
     22 C         143.1851  142.3706  166.6846 C.1     1  UNL1       -0.0482
     23 C         143.0332  142.2442  168.1716 C.3     1  UNL1        0.2183
     24 O         142.5924  140.9423  168.7724 O.3     1  UNL1       -0.3397
     25 C         142.0562  139.8532  167.8914 C.3     1  UNL1        0.1482
     26 C         142.9980  138.8888  167.2334 C.3     1  UNL1        0.0584
     27 C         143.2372  138.9650  165.7545 C.ar    1  UNL1       -0.0197
     28 C         142.0805  138.8863  164.8027 C.ar    1  UNL1       -0.0045
     29 C         142.3196  138.9625  163.3238 C.ar    1  UNL1       -0.0046
     30 C         143.7154  139.1173  162.7968 C.ar    1  UNL1       -0.0219
     31 C         143.9546  139.1935  161.3179 C.3     1  UNL1        0.0310
     32 C         144.8721  139.1959  163.7486 C.ar    1  UNL1       -0.0046
     33 C         144.6330  139.1198  165.2275 C.ar    1  UNL1       -0.0045
@<TRIPOS>UNITY_ATOM_ATTR
6 1
charge 1
@<TRIPOS>BOND
     1    14    15    1
     2    15    16   ar
     3    16    17   ar
     4    17    18   ar
     5    18    13    1
     6    13    12    1
     7    12    11    1
     8    11    10    1
     9    10     8    1
    10     8     9    3
    11     9     1    1
    12     1     2   ar
    13     2     3   ar
    14     3     4   ar
    15     4     5   ar
    16     5    21    1
    17    21    22    3
    18    22    23    1
    19    23    24    1
    20    24    25    1
    21    25    26    1
    22    26    27    1
    23    27    28   ar
    24    28    29   ar
    25    29    30   ar
    26    30    31    1
    27    30    32   ar
    28    32    33   ar
    29     5     6   ar
    30     6     7    1
    31    18    19   ar
    32    19    20   ar
    33    20    15   ar
    34     6     1   ar
    35    33    27   ar
