@<TRIPOS>MOLECULE
*****
 32 34 0 0 0
SMALL
GASTEIGER

@<TRIPOS>ATOM
      1 C         139.9212  144.3744  159.8463 C.3     1  UNL1        0.0912
      2 C         139.2134  142.2811  161.2127 C.2     1  UNL1        0.2637
      3 O         137.7914  142.7586  161.2078 O.2     1  UNL1       -0.2685
      4 N         140.2782  143.0890  160.5320 N.am    1  UNL1       -0.2996
      5 H         141.2115  142.7755  160.5352 H       1  UNL1        0.1498
      6 C         141.8968  137.8327  161.3202 C.3     1  UNL1        0.0736
      7 C         140.9122  138.7715  161.9521 C.ar    1  UNL1        0.1393
      8 N         140.5551  140.0569  161.2665 N.ar    1  UNL1       -0.2261
      9 C         139.5705  140.9956  161.8984 C.ar    1  UNL1        0.1369
     10 C         138.9430  140.6490  163.2160 C.ar    1  UNL1        0.0385
     11 C         139.3001  139.3636  163.9016 C.ar    1  UNL1        0.0612
     12 N         140.2847  138.4248  163.2697 N.ar    1  UNL1       -0.2350
     13 C         138.6727  139.0168  165.2193 C.3     1  UNL1        0.0356
     14 C         139.1523  137.6029  165.0757 C.3     1  UNL1        0.0059
     15 C         138.1930  140.4308  165.3629 C.3     1  UNL1        0.0059
     16 C         138.0452  138.6702  166.5369 C.3     1  UNL1        0.0059
     17 C         140.4016  145.6810  160.4048 C.3     1  UNL1        0.0386
     18 C         139.9871  146.1055  161.7825 C.3     1  UNL1        0.0739
     19 N         140.2391  145.2022  162.9532 N.3     1  UNL1       -0.2697
     20 C         141.6349  144.7488  163.2639 C.3     1  UNL1        0.0938
     21 C         141.8869  143.8455  164.4346 C.3     1  UNL1        0.1081
     22 N         140.7432  143.3956  165.2946 N.pl3   1  UNL1       -0.3049
     23 C         139.3476  143.8490  164.9840 C.3     1  UNL1        0.1081
     24 C         139.0955  144.7523  163.8133 C.3     1  UNL1        0.0938
     25 C         140.9953  142.4923  166.4654 C.ar    1  UNL1        0.0436
     26 C         140.4482  142.8456  167.8167 C.ar    1  UNL1        0.0142
     27 C         140.7003  141.9423  168.9874 C.ar    1  UNL1        0.0009
     28 C         141.4994  140.6858  168.8068 C.ar    1  UNL1       -0.0045
     29 C         142.0464  140.3326  167.4555 C.ar    1  UNL1       -0.0246
     30 C         142.8455  139.0761  167.2750 C.3     1  UNL1        0.0307
     31 C         141.7944  141.2358  166.2848 C.ar    1  UNL1       -0.0125
     32 C         142.3414  140.8826  164.9335 C.3     1  UNL1        0.0320
@<TRIPOS>BOND
     1     6     7    1
     2     7     8   ar
     3     8     9   ar
     4     9     2    1
     5     2     3    2
     6     2     4   am
     7     4     1    1
     8     1    17    1
     9    17    18    1
    10    18    19    1
    11    19    20    1
    12    20    21    1
    13    21    22    1
    14    22    25    1
    15    25    26   ar
    16    26    27   ar
    17    27    28   ar
    18    28    29   ar
    19    29    30    1
    20    29    31   ar
    21    31    32    1
    22    22    23    1
    23    23    24    1
    24     9    10   ar
    25    10    11   ar
    26    11    13    1
    27    13    14    1
    28    13    15    1
    29    13    16    1
    30    11    12   ar
    31    12     7   ar
    32    24    19    1
    33    31    25   ar
    34     4     5    1
@<TRIPOS>MOLECULE
*****
 32 34 0 0 0
SMALL
GASTEIGER

@<TRIPOS>ATOM
      1 C         141.2966  144.8232  159.6903 C.3     1  UNL1        0.0912
      2 C         141.5490  142.5593  160.9396 C.2     1  UNL1        0.2637
      3 O         140.3316  142.0358  160.2369 O.2     1  UNL1       -0.2685
      4 N         142.0315  143.9531  160.6663 N.am    1  UNL1       -0.2996
      5 H         142.8305  144.2967  161.1275 H       1  UNL1        0.1498
      6 C         145.8215  141.5137  163.7059 C.3     1  UNL1        0.0736
      7 C         144.4202  141.1664  163.2988 C.ar    1  UNL1        0.1393
      8 N         143.6853  142.0365  162.3228 N.ar    1  UNL1       -0.2261
      9 C         142.2840  141.6891  161.9157 C.ar    1  UNL1        0.1369
     10 C         141.6176  140.4717  162.4847 C.ar    1  UNL1        0.0385
     11 C         142.3526  139.6016  163.4608 C.ar    1  UNL1        0.0612
     12 N         143.7539  139.9489  163.8678 N.ar    1  UNL1       -0.2350
     13 C         141.6862  138.3841  164.0298 C.3     1  UNL1        0.0356
     14 C         141.1771  138.0250  162.6654 C.3     1  UNL1        0.0059
     15 C         142.1953  138.7433  165.3943 C.3     1  UNL1        0.0059
     16 C         141.0199  137.1667  164.5989 C.3     1  UNL1        0.0059
     17 C         140.1243  145.6395  160.1480 C.3     1  UNL1        0.0386
     18 C         140.0113  146.0486  161.5867 C.3     1  UNL1        0.0739
     19 N         139.9118  145.0035  162.6581 N.3     1  UNL1       -0.2697
     20 C         138.7113  144.1063  162.7213 C.3     1  UNL1        0.0938
     21 C         138.6118  143.0611  163.7927 C.3     1  UNL1        0.1081
     22 N         139.7127  142.9132  164.8008 N.pl3   1  UNL1       -0.3049
     23 C         140.9131  143.8104  164.7375 C.3     1  UNL1        0.1081
     24 C         141.0126  144.8556  163.6661 C.3     1  UNL1        0.0938
     25 C         139.6131  141.8681  165.8721 C.ar    1  UNL1        0.0436
     26 C         140.2348  142.1098  167.2157 C.ar    1  UNL1        0.0142
     27 C         140.1352  141.0646  168.2871 C.ar    1  UNL1        0.0009
     28 C         139.4141  139.7778  168.0148 C.ar    1  UNL1       -0.0045
     29 C         138.7925  139.5362  166.6712 C.ar    1  UNL1       -0.0246
     30 C         138.0713  138.2494  166.3990 C.3     1  UNL1        0.0307
     31 C         138.8920  140.5813  165.5999 C.ar    1  UNL1       -0.0125
     32 C         138.2704  140.3397  164.2563 C.3     1  UNL1        0.0320
@<TRIPOS>BOND
     1     6     7    1
     2     7     8   ar
     3     8     9   ar
     4     9     2    1
     5     2     3    2
     6     2     4   am
     7     4     1    1
     8     1    17    1
     9    17    18    1
    10    18    19    1
    11    19    20    1
    12    20    21    1
    13    21    22    1
    14    22    25    1
    15    25    26   ar
    16    26    27   ar
    17    27    28   ar
    18    28    29   ar
    19    29    30    1
    20    29    31   ar
    21    31    32    1
    22    22    23    1
    23    23    24    1
    24     9    10   ar
    25    10    11   ar
    26    11    13    1
    27    13    14    1
    28    13    15    1
    29    13    16    1
    30    11    12   ar
    31    12     7   ar
    32    24    19    1
    33    31    25   ar
    34     4     5    1
@<TRIPOS>MOLECULE
*****
 32 34 0 0 0
SMALL
GASTEIGER

@<TRIPOS>ATOM
      1 C         140.2662  145.5281  159.2109 C.3     1  UNL1        0.0912
      2 C         141.0279  144.5981  161.5142 C.2     1  UNL1        0.2637
      3 O         142.4519  144.5972  161.0429 O.2     1  UNL1       -0.2685
      4 N         139.9350  145.0636  160.5982 N.am    1  UNL1       -0.2996
      5 H         139.0004  145.0642  160.9075 H       1  UNL1        0.1498
      6 C         138.3106  145.1344  165.9106 C.3     1  UNL1        0.0736
      7 C         139.3380  144.4018  165.0997 C.ar    1  UNL1        0.1393
      8 N         139.6693  144.8662  163.7124 N.ar    1  UNL1       -0.2261
      9 C         140.6967  144.1336  162.9015 C.ar    1  UNL1        0.1369
     10 C         141.3928  142.9364  163.4778 C.ar    1  UNL1        0.0385
     11 C         141.0616  142.4720  164.8650 C.ar    1  UNL1        0.0612
     12 N         140.0342  143.2046  165.6760 N.ar    1  UNL1       -0.2350
     13 C         141.7578  141.2748  165.4414 C.3     1  UNL1        0.0356
     14 C         142.6135  141.1810  164.2130 C.3     1  UNL1        0.0059
     15 C         140.9021  141.3685  166.6697 C.3     1  UNL1        0.0059
     16 C         142.4539  140.0776  166.0177 C.3     1  UNL1        0.0059
     17 C         140.3981  144.5314  158.0977 C.3     1  UNL1        0.0386
     18 C         139.5356  143.3042  158.0837 C.3     1  UNL1        0.0739
     19 N         139.5935  142.3337  159.2260 N.3     1  UNL1       -0.2697
     20 C         138.3548  142.0302  160.0157 C.3     1  UNL1        0.0938
     21 C         138.4128  141.0597  161.1580 C.3     1  UNL1        0.1081
     22 N         139.7093  140.3928  161.5106 N.pl3   1  UNL1       -0.3049
     23 C         140.9479  140.6964  160.7208 C.3     1  UNL1        0.1081
     24 C         140.8900  141.6669  159.5785 C.3     1  UNL1        0.0938
     25 C         139.7673  139.4223  162.6529 C.ar    1  UNL1        0.0436
     26 C         140.6900  138.2415  162.5877 C.ar    1  UNL1        0.0142
     27 C         140.7479  137.2710  163.7300 C.ar    1  UNL1        0.0009
     28 C         139.8831  137.4814  164.9375 C.ar    1  UNL1       -0.0045
     29 C         138.9604  138.6622  165.0026 C.ar    1  UNL1       -0.0246
     30 C         138.0957  138.8726  166.2100 C.3     1  UNL1        0.0307
     31 C         138.9025  139.6327  163.8603 C.ar    1  UNL1       -0.0125
     32 C         137.9798  140.8135  163.9254 C.3     1  UNL1        0.0320
@<TRIPOS>BOND
     1     6     7    1
     2     7     8   ar
     3     8     9   ar
     4     9     2    1
     5     2     3    2
     6     2     4   am
     7     4     1    1
     8     1    17    1
     9    17    18    1
    10    18    19    1
    11    19    20    1
    12    20    21    1
    13    21    22    1
    14    22    25    1
    15    25    26   ar
    16    26    27   ar
    17    27    28   ar
    18    28    29   ar
    19    29    30    1
    20    29    31   ar
    21    31    32    1
    22    22    23    1
    23    23    24    1
    24     9    10   ar
    25    10    11   ar
    26    11    13    1
    27    13    14    1
    28    13    15    1
    29    13    16    1
    30    11    12   ar
    31    12     7   ar
    32    24    19    1
    33    31    25   ar
    34     4     5    1
@<TRIPOS>MOLECULE
*****
 32 34 0 0 0
SMALL
GASTEIGER

@<TRIPOS>ATOM
      1 C         137.4342  139.6018  160.9156 C.3     1  UNL1        0.0912
      2 C         138.4362  141.9554  161.3699 C.2     1  UNL1        0.2637
      3 O         137.3635  142.2160  162.3855 O.2     1  UNL1       -0.2685
      4 N         138.4715  140.6483  160.6350 N.am    1  UNL1       -0.2996
      5 H         139.1755  140.4773  159.9684 H       1  UNL1        0.1498
      6 C         140.3910  145.6350  158.2652 C.3     1  UNL1        0.0736
      7 C         140.4509  144.8417  159.5369 C.ar    1  UNL1        0.1393
      8 N         139.4136  143.7952  159.8176 N.ar    1  UNL1       -0.2261
      9 C         139.4735  143.0020  161.0893 C.ar    1  UNL1        0.1369
     10 C         140.5707  143.2552  162.0802 C.ar    1  UNL1        0.0385
     11 C         141.6080  144.3017  161.7995 C.ar    1  UNL1        0.0612
     12 N         141.5481  145.0950  160.5278 N.ar    1  UNL1       -0.2350
     13 C         142.7052  144.5549  162.7905 C.3     1  UNL1        0.0356
     14 C         141.7856  145.4352  163.5838 C.3     1  UNL1        0.0059
     15 C         143.6248  143.6747  161.9972 C.3     1  UNL1        0.0059
     16 C         143.8025  144.8082  163.7814 C.3     1  UNL1        0.0059
     17 C         137.7933  138.3858  161.7172 C.3     1  UNL1        0.0386
     18 C         139.1817  138.2308  162.2635 C.3     1  UNL1        0.0739
     19 N         139.5922  138.9851  163.4934 N.3     1  UNL1       -0.2697
     20 C         140.7539  139.9326  163.4392 C.3     1  UNL1        0.0938
     21 C         141.1645  140.6869  164.6690 C.3     1  UNL1        0.1081
     22 N         140.4133  140.4937  165.9530 N.pl3   1  UNL1       -0.3049
     23 C         139.2517  139.5463  166.0071 C.3     1  UNL1        0.1081
     24 C         138.8412  138.7920  164.7773 C.3     1  UNL1        0.0938
     25 C         140.8239  141.2481  167.1828 C.ar    1  UNL1        0.0436
     26 C         140.1563  142.5475  167.5235 C.ar    1  UNL1        0.0142
     27 C         140.5668  143.3018  168.7533 C.ar    1  UNL1        0.0009
     28 C         141.6450  142.7567  169.6425 C.ar    1  UNL1       -0.0045
     29 C         142.3125  141.4573  169.3018 C.ar    1  UNL1       -0.0246
     30 C         143.3905  140.9123  170.1910 C.3     1  UNL1        0.0307
     31 C         141.9019  140.7030  168.0720 C.ar    1  UNL1       -0.0125
     32 C         142.5694  139.4037  167.7314 C.3     1  UNL1        0.0320
@<TRIPOS>BOND
     1     6     7    1
     2     7     8   ar
     3     8     9   ar
     4     9     2    1
     5     2     3    2
     6     2     4   am
     7     4     1    1
     8     1    17    1
     9    17    18    1
    10    18    19    1
    11    19    20    1
    12    20    21    1
    13    21    22    1
    14    22    25    1
    15    25    26   ar
    16    26    27   ar
    17    27    28   ar
    18    28    29   ar
    19    29    30    1
    20    29    31   ar
    21    31    32    1
    22    22    23    1
    23    23    24    1
    24     9    10   ar
    25    10    11   ar
    26    11    13    1
    27    13    14    1
    28    13    15    1
    29    13    16    1
    30    11    12   ar
    31    12     7   ar
    32    24    19    1
    33    31    25   ar
    34     4     5    1
@<TRIPOS>MOLECULE
*****
 32 34 0 0 0
SMALL
GASTEIGER

@<TRIPOS>ATOM
      1 C         139.9239  144.2188  159.3291 C.3     1  UNL1        0.0912
      2 C         139.9253  141.7483  160.1332 C.2     1  UNL1        0.2637
      3 O         138.4284  141.7772  160.2246 O.2     1  UNL1       -0.2685
      4 N         140.6730  142.9692  159.6855 N.am    1  UNL1       -0.2996
      5 H         141.6555  142.9502  159.6255 H       1  UNL1        0.1498
      6 C         142.6950  137.5957  158.6894 C.3     1  UNL1        0.0736
      7 C         142.0594  138.4224  159.7677 C.ar    1  UNL1        0.1393
      8 N         141.3102  139.6720  159.4114 N.ar    1  UNL1       -0.2261
      9 C         140.6746  140.4987  160.4896 C.ar    1  UNL1        0.1369
     10 C         140.7882  140.0757  161.9242 C.ar    1  UNL1        0.0385
     11 C         141.5375  138.8260  162.2806 C.ar    1  UNL1        0.0612
     12 N         142.1731  137.9994  161.2023 N.ar    1  UNL1       -0.2350
     13 C         141.6511  138.4030  163.7152 C.3     1  UNL1        0.0356
     14 C         140.8339  137.1805  163.4196 C.3     1  UNL1        0.0059
     15 C         142.4684  139.6255  164.0109 C.3     1  UNL1        0.0059
     16 C         141.7648  137.9800  165.1498 C.3     1  UNL1        0.0059
     17 C         140.3382  145.5352  159.9169 C.3     1  UNL1        0.0386
     18 C         140.0507  145.8368  161.3580 C.3     1  UNL1        0.0739
     19 N         139.8365  144.7152  162.3307 N.3     1  UNL1       -0.2697
     20 C         138.4436  144.2951  162.6962 C.3     1  UNL1        0.0938
     21 C         138.2295  143.1736  163.6689 C.3     1  UNL1        0.1081
     22 N         139.4082  142.4721  164.2762 N.pl3   1  UNL1       -0.3049
     23 C         140.8009  142.8922  163.9106 C.3     1  UNL1        0.1081
     24 C         141.0151  144.0137  162.9379 C.3     1  UNL1        0.0938
     25 C         139.1940  141.3505  165.2489 C.ar    1  UNL1        0.0436
     26 C         138.3936  140.1484  164.8432 C.ar    1  UNL1        0.0142
     27 C         138.1794  139.0269  165.8159 C.ar    1  UNL1        0.0009
     28 C         138.7656  139.1074  167.1944 C.ar    1  UNL1       -0.0045
     29 C         139.5660  140.3094  167.6000 C.ar    1  UNL1       -0.0246
     30 C         140.1521  140.3898  168.9783 C.3     1  UNL1        0.0307
     31 C         139.7802  141.4309  166.6272 C.ar    1  UNL1       -0.0125
     32 C         140.5805  142.6330  167.0328 C.3     1  UNL1        0.0320
@<TRIPOS>BOND
     1     6     7    1
     2     7     8   ar
     3     8     9   ar
     4     9     2    1
     5     2     3    2
     6     2     4   am
     7     4     1    1
     8     1    17    1
     9    17    18    1
    10    18    19    1
    11    19    20    1
    12    20    21    1
    13    21    22    1
    14    22    25    1
    15    25    26   ar
    16    26    27   ar
    17    27    28   ar
    18    28    29   ar
    19    29    30    1
    20    29    31   ar
    21    31    32    1
    22    22    23    1
    23    23    24    1
    24     9    10   ar
    25    10    11   ar
    26    11    13    1
    27    13    14    1
    28    13    15    1
    29    13    16    1
    30    11    12   ar
    31    12     7   ar
    32    24    19    1
    33    31    25   ar
    34     4     5    1
@<TRIPOS>MOLECULE
*****
 32 34 0 0 0
SMALL
GASTEIGER

@<TRIPOS>ATOM
      1 C         138.4536  142.8463  157.9394 C.3     1  UNL1        0.0912
      2 C         138.1908  141.5245  160.1606 C.2     1  UNL1        0.2637
      3 O         137.9685  140.2614  159.3827 O.2     1  UNL1       -0.2685
      4 N         138.4333  142.8169  159.4390 N.am    1  UNL1       -0.2996
      5 H         138.5793  143.6459  159.9496 H       1  UNL1        0.1498
      6 C         137.7328  144.0036  164.7042 C.3     1  UNL1        0.0736
      7 C         137.9416  142.7347  163.9320 C.ar    1  UNL1        0.1393
      8 N         137.9618  142.7640  162.4324 N.ar    1  UNL1       -0.2261
      9 C         138.1706  141.4951  161.6602 C.ar    1  UNL1        0.1369
     10 C         138.3592  140.1969  162.3876 C.ar    1  UNL1        0.0385
     11 C         138.3390  140.1676  163.8871 C.ar    1  UNL1        0.0612
     12 N         138.1302  141.4365  164.6593 N.ar    1  UNL1       -0.2350
     13 C         138.5276  138.8694  164.6146 C.3     1  UNL1        0.0356
     14 C         138.0983  139.5239  165.8941 C.3     1  UNL1        0.0059
     15 C         138.9569  138.2149  163.3350 C.3     1  UNL1        0.0059
     16 C         138.7162  137.5712  165.3419 C.3     1  UNL1        0.0059
     17 C         139.4680  143.6844  157.2193 C.3     1  UNL1        0.0386
     18 C         140.1635  144.8024  157.9380 C.3     1  UNL1        0.0739
     19 N         140.8343  144.5449  159.2547 N.3     1  UNL1       -0.2697
     20 C         140.3540  145.2459  160.4909 C.3     1  UNL1        0.0938
     21 C         141.0248  144.9884  161.8076 C.3     1  UNL1        0.1081
     22 N         142.1759  144.0299  161.8881 N.pl3   1  UNL1       -0.3049
     23 C         142.6562  143.3290  160.6520 C.3     1  UNL1        0.1081
     24 C         141.9854  143.5865  159.3353 C.3     1  UNL1        0.0938
     25 C         142.8467  143.7724  163.2048 C.ar    1  UNL1        0.0436
     26 C         143.7910  144.7880  163.7768 C.ar    1  UNL1        0.0142
     27 C         144.4618  144.5305  165.0935 C.ar    1  UNL1        0.0009
     28 C         144.1884  143.2575  165.8382 C.ar    1  UNL1       -0.0045
     29 C         143.2441  142.2420  165.2663 C.ar    1  UNL1       -0.0246
     30 C         142.9707  140.9690  166.0111 C.3     1  UNL1        0.0307
     31 C         142.5733  142.4995  163.9496 C.ar    1  UNL1       -0.0125
     32 C         141.6291  141.4840  163.3776 C.3     1  UNL1        0.0320
@<TRIPOS>BOND
     1     6     7    1
     2     7     8   ar
     3     8     9   ar
     4     9     2    1
     5     2     3    2
     6     2     4   am
     7     4     1    1
     8     1    17    1
     9    17    18    1
    10    18    19    1
    11    19    20    1
    12    20    21    1
    13    21    22    1
    14    22    25    1
    15    25    26   ar
    16    26    27   ar
    17    27    28   ar
    18    28    29   ar
    19    29    30    1
    20    29    31   ar
    21    31    32    1
    22    22    23    1
    23    23    24    1
    24     9    10   ar
    25    10    11   ar
    26    11    13    1
    27    13    14    1
    28    13    15    1
    29    13    16    1
    30    11    12   ar
    31    12     7   ar
    32    24    19    1
    33    31    25   ar
    34     4     5    1
@<TRIPOS>MOLECULE
*****
 32 34 0 0 0
SMALL
GASTEIGER

@<TRIPOS>ATOM
      1 C         142.8509  139.1079  169.4791 C.3     1  UNL1        0.0912
      2 C         143.2305  138.5366  166.9732 C.2     1  UNL1        0.2637
      3 O         144.3117  137.5704  167.3573 O.2     1  UNL1       -0.2685
      4 N         142.5001  139.3053  168.0341 N.am    1  UNL1       -0.2996
      5 H         141.7905  139.9395  167.7820 H       1  UNL1        0.1498
      6 C         144.5379  140.1243  162.2014 C.3     1  UNL1        0.0736
      7 C         143.5335  139.5279  163.1423 C.ar    1  UNL1        0.1393
      8 N         143.8842  139.3305  164.5873 N.ar    1  UNL1       -0.2261
      9 C         142.8797  138.7341  165.5282 C.ar    1  UNL1        0.1369
     10 C         141.5245  138.3351  165.0241 C.ar    1  UNL1        0.0385
     11 C         141.1737  138.5326  163.5792 C.ar    1  UNL1        0.0612
     12 N         142.1782  139.1290  162.6383 N.ar    1  UNL1       -0.2350
     13 C         139.8184  138.1337  163.0751 C.3     1  UNL1        0.0356
     14 C         140.1426  138.7252  161.7353 C.3     1  UNL1        0.0059
     15 C         139.4942  137.5421  164.4148 C.3     1  UNL1        0.0059
     16 C         138.4632  137.7347  162.5710 C.3     1  UNL1        0.0059
     17 C         143.0505  140.2968  170.3716 C.3     1  UNL1        0.0386
     18 C         143.2834  141.6528  169.7738 C.3     1  UNL1        0.0739
     19 N         142.5055  142.0835  168.5658 N.3     1  UNL1       -0.2697
     20 C         143.1824  142.1715  167.2300 C.3     1  UNL1        0.0938
     21 C         142.4045  142.6022  166.0220 C.3     1  UNL1        0.1081
     22 N         140.9497  142.9449  166.1497 N.pl3   1  UNL1       -0.3049
     23 C         140.2729  142.8568  167.4854 C.3     1  UNL1        0.1081
     24 C         141.0508  142.4261  168.6934 C.3     1  UNL1        0.0938
     25 C         140.1718  143.3756  164.9416 C.ar    1  UNL1        0.0436
     26 C         140.4153  144.7257  164.3350 C.ar    1  UNL1        0.0142
     27 C         139.6374  145.1564  163.1269 C.ar    1  UNL1        0.0009
     28 C         138.6161  144.2370  162.5255 C.ar    1  UNL1       -0.0045
     29 C         138.3727  142.8869  163.1322 C.ar    1  UNL1       -0.0246
     30 C         137.3514  141.9676  162.5308 C.3     1  UNL1        0.0307
     31 C         139.1506  142.4562  164.3402 C.ar    1  UNL1       -0.0125
     32 C         138.9072  141.1062  164.9469 C.3     1  UNL1        0.0320
@<TRIPOS>BOND
     1     6     7    1
     2     7     8   ar
     3     8     9   ar
     4     9     2    1
     5     2     3    2
     6     2     4   am
     7     4     1    1
     8     1    17    1
     9    17    18    1
    10    18    19    1
    11    19    20    1
    12    20    21    1
    13    21    22    1
    14    22    25    1
    15    25    26   ar
    16    26    27   ar
    17    27    28   ar
    18    28    29   ar
    19    29    30    1
    20    29    31   ar
    21    31    32    1
    22    22    23    1
    23    23    24    1
    24     9    10   ar
    25    10    11   ar
    26    11    13    1
    27    13    14    1
    28    13    15    1
    29    13    16    1
    30    11    12   ar
    31    12     7   ar
    32    24    19    1
    33    31    25   ar
    34     4     5    1
@<TRIPOS>MOLECULE
*****
 32 34 0 0 0
SMALL
GASTEIGER

@<TRIPOS>ATOM
      1 C         141.9124  144.4138  159.3117 C.3     1  UNL1        0.0912
      2 C         140.1204  143.5914  161.0035 C.2     1  UNL1        0.2637
      3 O         139.1205  143.4814  159.8908 O.2     1  UNL1       -0.2685
      4 N         141.5164  144.0576  160.7139 N.am    1  UNL1       -0.2996
      5 H         142.1727  144.1297  161.4442 H       1  UNL1        0.1498
      6 C         138.4732  145.0290  165.7173 C.3     1  UNL1        0.0736
      7 C         138.9008  143.9539  164.7626 C.ar    1  UNL1        0.1393
      8 N         139.2968  144.3101  163.3604 N.ar    1  UNL1       -0.2261
      9 C         139.7244  143.2351  162.4057 C.ar    1  UNL1        0.1369
     10 C         139.7560  141.8038  162.8533 C.ar    1  UNL1        0.0385
     11 C         139.3600  141.4475  164.2555 C.ar    1  UNL1        0.0612
     12 N         138.9324  142.5226  165.2101 N.ar    1  UNL1       -0.2350
     13 C         139.3915  140.0162  164.7031 C.3     1  UNL1        0.0356
     14 C         139.1619  140.4539  166.1193 C.3     1  UNL1        0.0059
     15 C         139.6211  139.5784  163.2869 C.3     1  UNL1        0.0059
     16 C         139.4231  138.5849  165.1506 C.3     1  UNL1        0.0059
     17 C         142.7802  143.4828  158.5179 C.3     1  UNL1        0.0386
     18 C         143.9456  142.8022  159.1728 C.3     1  UNL1        0.0739
     19 N         143.7861  142.1808  160.5287 N.3     1  UNL1       -0.2697
     20 C         142.8871  140.9935  160.7085 C.3     1  UNL1        0.0938
     21 C         142.7276  140.3721  162.0644 C.3     1  UNL1        0.1081
     22 N         143.4671  140.9380  163.2404 N.pl3   1  UNL1       -0.3049
     23 C         144.3660  142.1252  163.0606 C.3     1  UNL1        0.1081
     24 C         144.5255  142.7466  161.7047 C.3     1  UNL1        0.0938
     25 C         143.3076  140.3166  164.5963 C.ar    1  UNL1        0.0436
     26 C         143.6271  138.8649  164.7983 C.ar    1  UNL1        0.0142
     27 C         143.4676  138.2435  166.1542 C.ar    1  UNL1        0.0009
     28 C         142.9886  139.0738  167.3081 C.ar    1  UNL1       -0.0045
     29 C         142.6691  140.5253  167.1060 C.ar    1  UNL1       -0.0246
     30 C         142.1901  141.3555  168.2599 C.3     1  UNL1        0.0307
     31 C         142.8286  141.1467  165.7502 C.ar    1  UNL1       -0.0125
     32 C         142.5091  142.5983  165.5481 C.3     1  UNL1        0.0320
@<TRIPOS>BOND
     1     6     7    1
     2     7     8   ar
     3     8     9   ar
     4     9     2    1
     5     2     3    2
     6     2     4   am
     7     4     1    1
     8     1    17    1
     9    17    18    1
    10    18    19    1
    11    19    20    1
    12    20    21    1
    13    21    22    1
    14    22    25    1
    15    25    26   ar
    16    26    27   ar
    17    27    28   ar
    18    28    29   ar
    19    29    30    1
    20    29    31   ar
    21    31    32    1
    22    22    23    1
    23    23    24    1
    24     9    10   ar
    25    10    11   ar
    26    11    13    1
    27    13    14    1
    28    13    15    1
    29    13    16    1
    30    11    12   ar
    31    12     7   ar
    32    24    19    1
    33    31    25   ar
    34     4     5    1
@<TRIPOS>MOLECULE
*****
 32 34 0 0 0
SMALL
GASTEIGER

@<TRIPOS>ATOM
      1 C         142.8795  138.8380  169.1942 C.3     1  UNL1        0.0912
      2 C         143.5631  138.6099  166.6981 C.2     1  UNL1        0.2637
      3 O         144.2531  137.3140  167.0055 O.2     1  UNL1       -0.2685
      4 N         142.8763  139.3719  167.7925 N.am    1  UNL1       -0.2996
      5 H         142.4234  140.2224  167.5908 H       1  UNL1        0.1498
      6 C         145.6530  141.6433  163.0334 C.3     1  UNL1        0.0736
      7 C         144.6048  140.6605  163.4640 C.ar    1  UNL1        0.1393
      8 N         144.6080  140.1266  164.8657 N.ar    1  UNL1       -0.2261
      9 C         143.5598  139.1438  165.2963 C.ar    1  UNL1        0.1369
     10 C         142.5084  138.6949  164.3252 C.ar    1  UNL1        0.0385
     11 C         142.5052  139.2289  162.9235 C.ar    1  UNL1        0.0612
     12 N         143.5534  140.2117  162.4929 N.ar    1  UNL1       -0.2350
     13 C         141.4538  138.7800  161.9523 C.3     1  UNL1        0.0356
     14 C         141.6837  140.0150  161.1326 C.3     1  UNL1        0.0059
     15 C         141.2239  137.5451  162.7721 C.3     1  UNL1        0.0059
     16 C         140.4024  138.3312  160.9812 C.3     1  UNL1        0.0059
     17 C         141.9893  139.4530  170.2331 C.3     1  UNL1        0.0386
     18 C         140.5814  139.8349  169.8835 C.3     1  UNL1        0.0739
     19 N         140.3068  140.6330  168.6435 N.3     1  UNL1       -0.2697
     20 C         140.6639  142.0891  168.5943 C.3     1  UNL1        0.0938
     21 C         140.3892  142.8872  167.3543 C.3     1  UNL1        0.1081
     22 N         139.7575  142.2292  166.1634 N.pl3   1  UNL1       -0.3049
     23 C         139.4004  140.7731  166.2127 C.3     1  UNL1        0.1081
     24 C         139.6751  139.9751  167.4527 C.3     1  UNL1        0.0938
     25 C         139.4828  143.0272  164.9234 C.ar    1  UNL1        0.0436
     26 C         138.0812  143.4530  164.6006 C.ar    1  UNL1        0.0142
     27 C         137.8065  144.2510  163.3606 C.ar    1  UNL1        0.0009
     28 C         138.9336  144.6234  162.4434 C.ar    1  UNL1       -0.0045
     29 C         140.3351  144.1977  162.7662 C.ar    1  UNL1       -0.0246
     30 C         141.4621  144.5701  161.8490 C.3     1  UNL1        0.0307
     31 C         140.6098  143.3996  164.0062 C.ar    1  UNL1       -0.0125
     32 C         142.0114  142.9739  164.3291 C.3     1  UNL1        0.0320
@<TRIPOS>BOND
     1     6     7    1
     2     7     8   ar
     3     8     9   ar
     4     9     2    1
     5     2     3    2
     6     2     4   am
     7     4     1    1
     8     1    17    1
     9    17    18    1
    10    18    19    1
    11    19    20    1
    12    20    21    1
    13    21    22    1
    14    22    25    1
    15    25    26   ar
    16    26    27   ar
    17    27    28   ar
    18    28    29   ar
    19    29    30    1
    20    29    31   ar
    21    31    32    1
    22    22    23    1
    23    23    24    1
    24     9    10   ar
    25    10    11   ar
    26    11    13    1
    27    13    14    1
    28    13    15    1
    29    13    16    1
    30    11    12   ar
    31    12     7   ar
    32    24    19    1
    33    31    25   ar
    34     4     5    1
