@<TRIPOS>MOLECULE
*****
 24 27 0 0 0
SMALL
GASTEIGER

@<TRIPOS>ATOM
      1 C         140.8322  142.0618  166.4161 C.2     1  UNL1        0.0020
      2 C         140.5285  142.3833  167.8495 C.2     1  UNL1        0.0130
      3 C         141.0833  141.5220  168.9451 C.3     1  UNL1        0.1542
      4 C         140.2249  142.7048  169.2828 C.3     1  UNL1        0.0614
      5 C         139.9214  143.0262  170.7161 C.3     1  UNL1        0.0725
      6 N         140.4762  142.1649  171.8117 N.3     1  UNL1       -0.2972
      7 C         141.3346  140.9821  171.4740 C.3     1  UNL1        0.0725
      8 C         141.6381  140.6606  170.0406 C.3     1  UNL1        0.0614
      9 O         141.9418  140.3391  168.6072 O.3     1  UNL1       -0.4785
     10 C         142.2454  140.0177  167.1739 C.ar    1  UNL1        0.1386
     11 C         143.1038  138.8349  166.8361 C.ar    1  UNL1        0.0369
     12 C         143.4074  138.5134  165.4028 C.ar    1  UNL1        0.0031
     13 C         142.8526  139.3748  164.3072 C.ar    1  UNL1        0.0002
     14 C         141.9942  140.5576  164.6450 C.ar    1  UNL1        0.0030
     15 C         141.6905  140.8790  166.0783 C.ar    1  UNL1        0.0338
     16 H         139.6788  141.8090  172.3389 H       1  UNL1        0.1233
     17 C         139.1677  144.6459  163.1294 C.ar    1  UNL1        0.1387
     18 C         140.5896  144.8210  163.5739 C.ar    1  UNL1        0.0369
     19 C         141.1444  143.9596  164.6694 C.ar    1  UNL1        0.0031
     20 C         140.2773  142.9232  165.3205 C.ar    1  UNL1        0.0001
     21 C         138.8554  142.7481  164.8761 C.ar    1  UNL1        0.0031
     22 C         138.3006  143.6094  163.7805 C.ar    1  UNL1        0.0369
     23 C         139.5052  146.4773  161.3178 C.3     1  UNL1        0.2525
     24 O         138.6129  145.5072  162.0338 O.3     1  UNL1       -0.4714
@<TRIPOS>BOND
     1    23    24    1
     2    24    17    1
     3    17    18   ar
     4    18    19   ar
     5    19    20   ar
     6    20     1    1
     7     1     2    2
     8     2     3    1
     9     3     4    1
    10     4     5    1
    11     5     6    1
    12     6     7    1
    13     7     8    1
    14     3     9    1
    15     9    10    1
    16    10    11   ar
    17    11    12   ar
    18    12    13   ar
    19    13    14   ar
    20    14    15   ar
    21    20    21   ar
    22    21    22   ar
    23    22    17   ar
    24    15     1    1
    25     8     3    1
    26    15    10   ar
    27     6    16    1
@<TRIPOS>MOLECULE
*****
 24 27 0 0 0
SMALL
GASTEIGER

@<TRIPOS>ATOM
      1 C         140.0139  142.2527  166.2054 C.2     1  UNL1        0.0020
      2 C         140.4771  142.6125  167.5861 C.2     1  UNL1        0.0130
      3 C         140.4104  141.5969  168.6880 C.3     1  UNL1        0.1542
      4 C         140.9402  142.9722  168.9667 C.3     1  UNL1        0.0614
      5 C         141.4033  143.3319  170.3473 C.3     1  UNL1        0.0725
      6 N         141.3366  142.3163  171.4491 N.3     1  UNL1       -0.2972
      7 C         140.8068  140.9410  171.1704 C.3     1  UNL1        0.0725
      8 C         140.3437  140.5813  169.7898 C.3     1  UNL1        0.0614
      9 O         139.8805  140.2215  168.4092 O.3     1  UNL1       -0.4785
     10 C         139.4174  139.8618  167.0286 C.ar    1  UNL1        0.1386
     11 C         138.8875  138.4864  166.7498 C.ar    1  UNL1        0.0369
     12 C         138.4244  138.1267  165.3692 C.ar    1  UNL1        0.0031
     13 C         138.4911  139.1423  164.2673 C.ar    1  UNL1        0.0002
     14 C         139.0209  140.5177  164.5461 C.ar    1  UNL1        0.0030
     15 C         139.4841  140.8774  165.9267 C.ar    1  UNL1        0.0338
     16 H         140.7497  142.7150  172.1820 H       1  UNL1        0.1233
     17 C         140.2141  145.2996  162.8999 C.ar    1  UNL1        0.1387
     18 C         141.4753  144.6870  163.4326 C.ar    1  UNL1        0.0369
     19 C         141.4086  143.6714  164.5345 C.ar    1  UNL1        0.0031
     20 C         140.0806  143.2683  165.1036 C.ar    1  UNL1        0.0001
     21 C         138.8193  143.8809  164.5708 C.ar    1  UNL1        0.0031
     22 C         138.8860  144.8965  163.4690 C.ar    1  UNL1        0.0369
     23 C         140.1973  145.8752  160.3665 C.3     1  UNL1        0.2525
     24 O         140.2808  146.3152  161.7980 O.3     1  UNL1       -0.4714
@<TRIPOS>BOND
     1    23    24    1
     2    24    17    1
     3    17    18   ar
     4    18    19   ar
     5    19    20   ar
     6    20     1    1
     7     1     2    2
     8     2     3    1
     9     3     4    1
    10     4     5    1
    11     5     6    1
    12     6     7    1
    13     7     8    1
    14     3     9    1
    15     9    10    1
    16    10    11   ar
    17    11    12   ar
    18    12    13   ar
    19    13    14   ar
    20    14    15   ar
    21    20    21   ar
    22    21    22   ar
    23    22    17   ar
    24    15     1    1
    25     8     3    1
    26    15    10   ar
    27     6    16    1
@<TRIPOS>MOLECULE
*****
 24 27 0 0 0
SMALL
GASTEIGER

@<TRIPOS>ATOM
      1 C         141.8651  141.1738  166.3985 C.2     1  UNL1        0.0020
      2 C         142.2575  141.7258  167.7369 C.2     1  UNL1        0.0130
      3 C         141.4151  141.4362  168.9438 C.3     1  UNL1        0.1542
      4 C         142.6498  142.2777  169.0753 C.3     1  UNL1        0.0614
      5 C         143.0422  142.8297  170.4137 C.3     1  UNL1        0.0725
      6 N         142.1998  142.5401  171.6206 N.3     1  UNL1       -0.2972
      7 C         140.9651  141.6986  171.4891 C.3     1  UNL1        0.0725
      8 C         140.5727  141.1467  170.1507 C.3     1  UNL1        0.0614
      9 O         140.1803  140.5947  168.8122 O.3     1  UNL1       -0.4785
     10 C         139.7880  140.0427  167.4738 C.ar    1  UNL1        0.1386
     11 C         138.5532  139.2012  167.3423 C.ar    1  UNL1        0.0369
     12 C         138.1609  138.6492  166.0039 C.ar    1  UNL1        0.0031
     13 C         139.0032  138.9388  164.7970 C.ar    1  UNL1        0.0002
     14 C         140.2380  139.7803  164.9285 C.ar    1  UNL1        0.0030
     15 C         140.6304  140.3323  166.2669 C.ar    1  UNL1        0.0338
     16 H         141.9035  143.4411  171.9959 H       1  UNL1        0.1233
     17 C         144.3922  142.0424  162.7778 C.ar    1  UNL1        0.1387
     18 C         144.6803  140.8363  163.6217 C.ar    1  UNL1        0.0369
     19 C         143.8379  140.5467  164.8286 C.ar    1  UNL1        0.0031
     20 C         142.7074  141.4633  165.1916 C.ar    1  UNL1        0.0001
     21 C         142.4192  142.6695  164.3477 C.ar    1  UNL1        0.0031
     22 C         143.2616  142.9590  163.1408 C.ar    1  UNL1        0.0369
     23 C         144.5898  142.4835  160.2251 C.3     1  UNL1        0.2525
     24 O         145.2345  142.3319  161.5709 O.3     1  UNL1       -0.4714
@<TRIPOS>BOND
     1    23    24    1
     2    24    17    1
     3    17    18   ar
     4    18    19   ar
     5    19    20   ar
     6    20     1    1
     7     1     2    2
     8     2     3    1
     9     3     4    1
    10     4     5    1
    11     5     6    1
    12     6     7    1
    13     7     8    1
    14     3     9    1
    15     9    10    1
    16    10    11   ar
    17    11    12   ar
    18    12    13   ar
    19    13    14   ar
    20    14    15   ar
    21    20    21   ar
    22    21    22   ar
    23    22    17   ar
    24    15     1    1
    25     8     3    1
    26    15    10   ar
    27     6    16    1
@<TRIPOS>MOLECULE
*****
 24 27 0 0 0
SMALL
GASTEIGER

@<TRIPOS>ATOM
      1 C         141.0901  142.2632  165.1691 C.2     1  UNL1        0.0020
      2 C         142.4901  141.9865  164.7071 C.2     1  UNL1        0.0130
      3 C         142.9736  142.5460  163.4020 C.3     1  UNL1        0.1542
      4 C         143.8901  141.7100  164.2452 C.3     1  UNL1        0.0614
      5 C         145.2901  141.4334  163.7832 C.3     1  UNL1        0.0725
      6 N         145.7736  141.9928  162.4781 N.3     1  UNL1       -0.2972
      7 C         144.8571  142.8288  161.6350 C.3     1  UNL1        0.0725
      8 C         143.4571  143.1054  162.0969 C.3     1  UNL1        0.0614
      9 O         142.0570  143.3821  162.5589 O.3     1  UNL1       -0.4785
     10 C         140.6570  143.6586  163.0208 C.ar    1  UNL1        0.1386
     11 C         139.7403  144.4947  162.1776 C.ar    1  UNL1        0.0369
     12 C         138.3403  144.7713  162.6396 C.ar    1  UNL1        0.0031
     13 C         137.8569  144.2119  163.9447 C.ar    1  UNL1        0.0002
     14 C         138.7734  143.3758  164.7878 C.ar    1  UNL1        0.0030
     15 C         140.1735  143.0992  164.3259 C.ar    1  UNL1        0.0338
     16 H         146.0585  141.1987  161.9048 H       1  UNL1        0.1233
     17 C         139.6397  140.5848  169.0844 C.ar    1  UNL1        0.1387
     18 C         140.3600  141.9002  169.0530 C.ar    1  UNL1        0.0369
     19 C         140.8434  142.4596  167.7479 C.ar    1  UNL1        0.0031
     20 C         140.6066  141.7037  166.4742 C.ar    1  UNL1        0.0001
     21 C         139.8863  140.3883  166.5055 C.ar    1  UNL1        0.0031
     22 C         139.4028  139.8288  167.8105 C.ar    1  UNL1        0.0369
     23 C         140.1381  139.6997  171.4756 C.3     1  UNL1        0.2525
     24 O         139.1562  140.0254  170.3894 O.3     1  UNL1       -0.4714
@<TRIPOS>BOND
     1    23    24    1
     2    24    17    1
     3    17    18   ar
     4    18    19   ar
     5    19    20   ar
     6    20     1    1
     7     1     2    2
     8     2     3    1
     9     3     4    1
    10     4     5    1
    11     5     6    1
    12     6     7    1
    13     7     8    1
    14     3     9    1
    15     9    10    1
    16    10    11   ar
    17    11    12   ar
    18    12    13   ar
    19    13    14   ar
    20    14    15   ar
    21    20    21   ar
    22    21    22   ar
    23    22    17   ar
    24    15     1    1
    25     8     3    1
    26    15    10   ar
    27     6    16    1
@<TRIPOS>MOLECULE
*****
 24 27 0 0 0
SMALL
GASTEIGER

@<TRIPOS>ATOM
      1 C         140.7821  141.3272  166.4071 C.2     1  UNL1        0.0020
      2 C         140.3764  142.5768  165.6833 C.2     1  UNL1        0.0130
      3 C         141.1750  143.0550  164.5070 C.3     1  UNL1        0.1542
      4 C         139.9708  143.8264  164.9594 C.3     1  UNL1        0.0614
      5 C         139.5652  145.0760  164.2356 C.3     1  UNL1        0.0725
      6 N         140.3639  145.5542  163.0594 N.3     1  UNL1       -0.2972
      7 C         141.5681  144.7827  162.6069 C.3     1  UNL1        0.0725
      8 C         141.9737  143.5332  163.3308 C.3     1  UNL1        0.0614
      9 O         142.3793  142.2835  164.0546 O.3     1  UNL1       -0.4785
     10 C         142.7849  141.0339  164.7785 C.ar    1  UNL1        0.1386
     11 C         143.9892  140.2624  164.3260 C.ar    1  UNL1        0.0369
     12 C         144.3948  139.0128  165.0499 C.ar    1  UNL1        0.0031
     13 C         143.5961  138.5347  166.2261 C.ar    1  UNL1        0.0002
     14 C         142.3919  139.3061  166.6785 C.ar    1  UNL1        0.0030
     15 C         141.9863  140.5557  165.9547 C.ar    1  UNL1        0.0338
     16 H         140.6849  146.4957  163.2846 H       1  UNL1        0.1233
     17 C         138.3862  139.8927  169.9359 C.ar    1  UNL1        0.1387
     18 C         139.4215  140.9627  170.1174 C.ar    1  UNL1        0.0369
     19 C         140.2201  141.4409  168.9411 C.ar    1  UNL1        0.0031
     20 C         139.9834  140.8490  167.5834 C.ar    1  UNL1        0.0001
     21 C         138.9481  139.7789  167.4018 C.ar    1  UNL1        0.0031
     22 C         138.1494  139.3007  168.5780 C.ar    1  UNL1        0.0369
     23 C         136.3169  138.6479  170.8941 C.3     1  UNL1        0.2525
     24 O         137.5876  139.4145  171.1121 O.3     1  UNL1       -0.4714
@<TRIPOS>BOND
     1    23    24    1
     2    24    17    1
     3    17    18   ar
     4    18    19   ar
     5    19    20   ar
     6    20     1    1
     7     1     2    2
     8     2     3    1
     9     3     4    1
    10     4     5    1
    11     5     6    1
    12     6     7    1
    13     7     8    1
    14     3     9    1
    15     9    10    1
    16    10    11   ar
    17    11    12   ar
    18    12    13   ar
    19    13    14   ar
    20    14    15   ar
    21    20    21   ar
    22    21    22   ar
    23    22    17   ar
    24    15     1    1
    25     8     3    1
    26    15    10   ar
    27     6    16    1
@<TRIPOS>MOLECULE
*****
 24 27 0 0 0
SMALL
GASTEIGER

@<TRIPOS>ATOM
      1 C         141.3029  142.3050  164.7458 C.2     1  UNL1        0.0020
      2 C         140.4872  143.3154  163.9948 C.2     1  UNL1        0.0130
      3 C         141.0161  143.9112  162.7238 C.3     1  UNL1        0.1542
      4 C         139.6716  144.3257  163.2439 C.3     1  UNL1        0.0614
      5 C         138.8559  145.3360  162.4929 C.3     1  UNL1        0.0725
      6 N         139.3848  145.9317  161.2219 N.3     1  UNL1       -0.2972
      7 C         140.7293  145.5172  160.7019 C.3     1  UNL1        0.0725
      8 C         141.5449  144.5069  161.4529 C.3     1  UNL1        0.0614
      9 O         142.3606  143.4966  162.2038 O.3     1  UNL1       -0.4785
     10 C         143.1763  142.4863  162.9548 C.ar    1  UNL1        0.1386
     11 C         144.5208  142.0717  162.4348 C.ar    1  UNL1        0.0369
     12 C         145.3365  141.0614  163.1858 C.ar    1  UNL1        0.0031
     13 C         144.8076  140.4657  164.4567 C.ar    1  UNL1        0.0002
     14 C         143.4631  140.8802  164.9767 C.ar    1  UNL1        0.0030
     15 C         142.6474  141.8905  164.2258 C.ar    1  UNL1        0.0338
     16 H         139.4221  146.9412  161.3632 H       1  UNL1        0.1233
     17 C         139.7164  140.5177  168.5587 C.ar    1  UNL1        0.1387
     18 C         139.4711  139.8293  167.2488 C.ar    1  UNL1        0.0369
     19 C         139.9999  140.4251  165.9778 C.ar    1  UNL1        0.0031
     20 C         140.7741  141.7093  166.0168 C.ar    1  UNL1        0.0001
     21 C         141.0194  142.3977  167.3267 C.ar    1  UNL1        0.0031
     22 C         140.4905  141.8020  168.5977 C.ar    1  UNL1        0.0369
     23 C         140.0610  139.8558  171.0473 C.3     1  UNL1        0.2525
     24 O         139.1875  139.9219  169.8297 O.3     1  UNL1       -0.4714
@<TRIPOS>BOND
     1    23    24    1
     2    24    17    1
     3    17    18   ar
     4    18    19   ar
     5    19    20   ar
     6    20     1    1
     7     1     2    2
     8     2     3    1
     9     3     4    1
    10     4     5    1
    11     5     6    1
    12     6     7    1
    13     7     8    1
    14     3     9    1
    15     9    10    1
    16    10    11   ar
    17    11    12   ar
    18    12    13   ar
    19    13    14   ar
    20    14    15   ar
    21    20    21   ar
    22    21    22   ar
    23    22    17   ar
    24    15     1    1
    25     8     3    1
    26    15    10   ar
    27     6    16    1
@<TRIPOS>MOLECULE
*****
 24 27 0 0 0
SMALL
GASTEIGER

@<TRIPOS>ATOM
      1 C         140.8513  140.8714  166.1830 C.2     1  UNL1        0.0020
      2 C         140.4917  140.6046  167.6146 C.2     1  UNL1        0.0130
      3 C         141.3442  141.1583  168.7177 C.3     1  UNL1        0.1542
      4 C         140.1323  140.3379  169.0463 C.3     1  UNL1        0.0614
      5 C         139.7728  140.0712  170.4779 C.3     1  UNL1        0.0725
      6 N         140.6253  140.6249  171.5809 N.3     1  UNL1       -0.2972
      7 C         141.8373  141.4453  171.2523 C.3     1  UNL1        0.0725
      8 C         142.1967  141.7121  169.8207 C.3     1  UNL1        0.0614
      9 O         142.5562  141.9788  168.3890 O.3     1  UNL1       -0.4785
     10 C         142.9157  142.2455  166.9574 C.ar    1  UNL1        0.1386
     11 C         144.1277  143.0660  166.6287 C.ar    1  UNL1        0.0369
     12 C         144.4872  143.3327  165.1971 C.ar    1  UNL1        0.0031
     13 C         143.6347  142.7790  164.0941 C.ar    1  UNL1        0.0002
     14 C         142.4227  141.9586  164.4227 C.ar    1  UNL1        0.0030
     15 C         142.0632  141.6918  165.8543 C.ar    1  UNL1        0.0338
     16 H         140.9487  139.8291  172.1309 H       1  UNL1        0.1233
     17 C         138.2938  139.2103  162.8739 C.ar    1  UNL1        0.1387
     18 C         139.4400  138.4060  163.4117 C.ar    1  UNL1        0.0369
     19 C         140.2925  138.9597  164.5147 C.ar    1  UNL1        0.0031
     20 C         139.9988  140.3177  165.0799 C.ar    1  UNL1        0.0001
     21 C         138.8525  141.1220  164.5421 C.ar    1  UNL1        0.0031
     22 C         138.0000  140.5683  163.4391 C.ar    1  UNL1        0.0369
     23 C         137.1835  139.4739  160.5398 C.3     1  UNL1        0.2525
     24 O         137.4413  138.6565  161.7709 O.3     1  UNL1       -0.4714
@<TRIPOS>BOND
     1    23    24    1
     2    24    17    1
     3    17    18   ar
     4    18    19   ar
     5    19    20   ar
     6    20     1    1
     7     1     2    2
     8     2     3    1
     9     3     4    1
    10     4     5    1
    11     5     6    1
    12     6     7    1
    13     7     8    1
    14     3     9    1
    15     9    10    1
    16    10    11   ar
    17    11    12   ar
    18    12    13   ar
    19    13    14   ar
    20    14    15   ar
    21    20    21   ar
    22    21    22   ar
    23    22    17   ar
    24    15     1    1
    25     8     3    1
    26    15    10   ar
    27     6    16    1
@<TRIPOS>MOLECULE
*****
 24 27 0 0 0
SMALL
GASTEIGER

@<TRIPOS>ATOM
      1 C         141.7668  140.9303  166.0941 C.2     1  UNL1        0.0020
      2 C         142.0964  140.5762  167.5140 C.2     1  UNL1        0.0130
      3 C         141.5349  141.3926  168.6402 C.3     1  UNL1        0.1542
      4 C         142.4260  140.2222  168.9339 C.3     1  UNL1        0.0614
      5 C         142.7555  139.8682  170.3537 C.3     1  UNL1        0.0725
      6 N         142.1940  140.6846  171.4799 N.3     1  UNL1       -0.2972
      7 C         141.3029  141.8549  171.1863 C.3     1  UNL1        0.0725
      8 C         140.9734  142.2089  169.7664 C.3     1  UNL1        0.0614
      9 O         140.6438  142.5629  168.3465 O.3     1  UNL1       -0.4785
     10 C         140.3143  142.9169  166.9266 C.ar    1  UNL1        0.1386
     11 C         139.4231  144.0873  166.6329 C.ar    1  UNL1        0.0369
     12 C         139.0936  144.4413  165.2130 C.ar    1  UNL1        0.0031
     13 C         139.6551  143.6250  164.0869 C.ar    1  UNL1        0.0002
     14 C         140.5462  142.4547  164.3805 C.ar    1  UNL1        0.0030
     15 C         140.8758  142.1006  165.8004 C.ar    1  UNL1        0.0338
     16 H         142.9892  141.0450  172.0074 H       1  UNL1        0.1233
     17 C         143.4514  138.4813  162.7156 C.ar    1  UNL1        0.1387
     18 C         144.2171  139.6583  163.2431 C.ar    1  UNL1        0.0369
     19 C         143.6556  140.4746  164.3693 C.ar    1  UNL1        0.0031
     20 C         142.3284  140.1139  164.9679 C.ar    1  UNL1        0.0001
     21 C         141.5626  138.9369  164.4404 C.ar    1  UNL1        0.0031
     22 C         142.1241  138.1206  163.3142 C.ar    1  UNL1        0.0369
     23 C         143.2197  137.4786  160.3300 C.3     1  UNL1        0.2525
     24 O         144.0129  137.6650  161.5894 O.3     1  UNL1       -0.4714
@<TRIPOS>BOND
     1    23    24    1
     2    24    17    1
     3    17    18   ar
     4    18    19   ar
     5    19    20   ar
     6    20     1    1
     7     1     2    2
     8     2     3    1
     9     3     4    1
    10     4     5    1
    11     5     6    1
    12     6     7    1
    13     7     8    1
    14     3     9    1
    15     9    10    1
    16    10    11   ar
    17    11    12   ar
    18    12    13   ar
    19    13    14   ar
    20    14    15   ar
    21    20    21   ar
    22    21    22   ar
    23    22    17   ar
    24    15     1    1
    25     8     3    1
    26    15    10   ar
    27     6    16    1
@<TRIPOS>MOLECULE
*****
 24 27 0 0 0
SMALL
GASTEIGER

@<TRIPOS>ATOM
      1 C         142.1479  142.1592  165.1985 C.2     1  UNL1        0.0020
      2 C         140.8166  142.7826  164.8997 C.2     1  UNL1        0.0130
      3 C         140.5911  143.4781  163.5900 C.3     1  UNL1        0.1542
      4 C         139.4854  143.4060  164.6010 C.3     1  UNL1        0.0614
      5 C         138.1543  144.0293  164.3022 C.3     1  UNL1        0.0725
      6 N         137.9288  144.7248  162.9925 N.3     1  UNL1       -0.2972
      7 C         139.0345  144.7970  161.9815 C.3     1  UNL1        0.0725
      8 C         140.3657  144.1736  162.2802 C.3     1  UNL1        0.0614
      9 O         141.6970  143.5502  162.5790 O.3     1  UNL1       -0.4785
     10 C         143.0281  142.9268  162.8777 C.ar    1  UNL1        0.1386
     11 C         144.1339  142.9989  161.8667 C.ar    1  UNL1        0.0369
     12 C         145.4651  142.3755  162.1655 C.ar    1  UNL1        0.0031
     13 C         145.6906  141.6800  163.4752 C.ar    1  UNL1        0.0002
     14 C         144.5849  141.6079  164.4862 C.ar    1  UNL1        0.0030
     15 C         143.2536  142.2313  164.1875 C.ar    1  UNL1        0.0338
     16 H         137.6663  145.6860  163.2108 H       1  UNL1        0.1233
     17 C         142.8243  140.0727  169.1277 C.ar    1  UNL1        0.1387
     18 C         143.0297  141.5547  169.0204 C.ar    1  UNL1        0.0369
     19 C         142.8043  142.2501  167.7106 C.ar    1  UNL1        0.0031
     20 C         142.3734  141.4637  166.5082 C.ar    1  UNL1        0.0001
     21 C         142.1679  139.9817  166.6156 C.ar    1  UNL1        0.0031
     22 C         142.3934  139.2862  167.9253 C.ar    1  UNL1        0.0369
     23 C         143.1126  137.8795  170.4903 C.3     1  UNL1        0.2525
     24 O         143.0498  139.3772  170.4375 O.3     1  UNL1       -0.4714
@<TRIPOS>BOND
     1    23    24    1
     2    24    17    1
     3    17    18   ar
     4    18    19   ar
     5    19    20   ar
     6    20     1    1
     7     1     2    2
     8     2     3    1
     9     3     4    1
    10     4     5    1
    11     5     6    1
    12     6     7    1
    13     7     8    1
    14     3     9    1
    15     9    10    1
    16    10    11   ar
    17    11    12   ar
    18    12    13   ar
    19    13    14   ar
    20    14    15   ar
    21    20    21   ar
    22    21    22   ar
    23    22    17   ar
    24    15     1    1
    25     8     3    1
    26    15    10   ar
    27     6    16    1
