@<TRIPOS>MOLECULE
*****
 40 43 0 0 0
SMALL
GASTEIGER

@<TRIPOS>ATOM
      1 C         141.4341  141.7145  163.1320 C.3     1  UNL1        0.1031
      2 C         140.9871  145.0609  161.0459 C.ar    1  UNL1        0.0529
      3 C         139.9524  145.7711  161.8675 C.ar    1  UNL1        0.0147
      4 C         139.4116  145.1291  163.1106 C.ar    1  UNL1        0.0010
      5 C         139.9055  143.7769  163.5321 C.ar    1  UNL1       -0.0026
      6 C         140.9401  143.0667  162.7105 C.ar    1  UNL1       -0.0024
      7 C         141.4810  143.7088  161.4674 C.ar    1  UNL1        0.0121
      8 C         140.8487  145.4756  158.4849 C.2     1  UNL1        0.4054
      9 O         139.6286  144.6061  158.4101 O.2     1  UNL1       -0.2261
     10 N         141.5279  145.7029  159.8028 N.am    1  UNL1       -0.2499
     11 H         142.3287  146.2736  159.8519 H       1  UNL1        0.1582
     12 O         141.3895  146.1176  157.2418 O.3     1  UNL1       -0.4345
     13 C         140.5336  146.0051  154.7913 C.3     1  UNL1        0.0513
     14 C         141.3024  145.3992  155.9279 C.3     1  UNL1        0.2102
     15 C         141.5851  141.3919  164.5891 C.ar    1  UNL1       -0.0036
     16 C         140.7044  140.3564  165.2232 C.ar    1  UNL1       -0.0025
     17 C         140.8556  140.0338  166.6804 C.ar    1  UNL1        0.0042
     18 C         141.8874  140.7466  167.5033 C.ar    1  UNL1        0.0536
     19 C         142.7681  141.7821  166.8691 C.ar    1  UNL1        0.0042
     20 C         142.6170  142.1047  165.4121 C.ar    1  UNL1       -0.0025
     21 C         142.0384  140.4240  168.9603 C.2     1  UNL1        0.2491
     22 O         143.0366  139.3946  169.4010 O.2     1  UNL1       -0.2699
     23 N         141.1915  141.1307  169.9767 N.am    1  UNL1       -0.2743
     24 C         141.3426  140.8081  171.4339 C.3     1  UNL1        0.1152
     25 C         140.1934  142.1601  169.5361 C.3     1  UNL1        0.0938
     26 C         140.5451  143.6173  169.5905 C.3     1  UNL1        0.0233
     27 N         141.7769  140.6850  162.0964 N.3     1  UNL1       -0.2644
     28 C         143.2127  140.3635  161.8050 C.3     1  UNL1        0.0901
     29 C         143.5555  139.3339  160.7694 C.3     1  UNL1        0.0900
     30 N         142.4625  138.6259  160.0251 N.3     1  UNL1       -0.2652
     31 C         141.0265  138.9474  160.3165 C.3     1  UNL1        0.0900
     32 C         140.6837  139.9769  161.3522 C.3     1  UNL1        0.0901
     33 C         142.8053  137.5963  158.9895 C.3     1  UNL1        0.1181
     34 C         142.3789  137.7945  157.5651 C.ar    1  UNL1        0.0703
     35 C         143.1604  138.5080  156.5020 C.ar    1  UNL1        0.1140
     36 N         142.3607  138.4683  155.2336 N.ar    1  UNL1       -0.2299
     37 C         141.0849  137.7303  155.5128 C.ar    1  UNL1        0.1173
     38 C         139.9901  137.4569  154.5246 C.3     1  UNL1        0.0716
     39 N         141.0963  137.3139  156.9538 N.ar    1  UNL1       -0.3430
     40 H         140.3864  136.8131  157.4170 H       1  UNL1        0.1668
@<TRIPOS>BOND
     1    13    14    1
     2    14    12    1
     3    12     8    1
     4     8     9    2
     5     8    10   am
     6    10     2    1
     7     2     3   ar
     8     3     4   ar
     9     4     5   ar
    10     5     6   ar
    11     6     1    1
    12     1    15    1
    13    15    16   ar
    14    16    17   ar
    15    17    18   ar
    16    18    21    1
    17    21    22    2
    18    21    23   am
    19    23    24    1
    20    23    25    1
    21    25    26    1
    22    18    19   ar
    23    19    20   ar
    24     1    27    1
    25    27    28    1
    26    28    29    1
    27    29    30    1
    28    30    33    1
    29    33    34    1
    30    34    35   ar
    31    35    36   ar
    32    36    37   ar
    33    37    38    1
    34    37    39   ar
    35    30    31    1
    36    31    32    1
    37     6     7   ar
    38     7     2   ar
    39    20    15   ar
    40    32    27    1
    41    39    34   ar
    42    10    11    1
    43    39    40    1
@<TRIPOS>MOLECULE
*****
 40 43 0 0 0
SMALL
GASTEIGER

@<TRIPOS>ATOM
      1 C         140.9825  139.1499  158.5970 C.3     1  UNL1        0.1031
      2 C         140.3106  143.0387  158.1771 C.ar    1  UNL1        0.0529
      3 C         141.0586  143.3201  156.9078 C.ar    1  UNL1        0.0147
      4 C         141.7813  142.2116  156.2016 C.ar    1  UNL1        0.0010
      5 C         141.7560  140.8215  156.7646 C.ar    1  UNL1       -0.0026
      6 C         141.0079  140.5400  158.0339 C.ar    1  UNL1       -0.0024
      7 C         140.2852  141.6486  158.7401 C.ar    1  UNL1        0.0121
      8 C         140.3525  145.1209  159.7303 C.2     1  UNL1        0.4054
      9 O         141.8398  144.9861  159.8709 O.2     1  UNL1       -0.2261
     10 N         139.5879  144.1472  158.8833 N.am    1  UNL1       -0.2499
     11 H         138.6117  144.2358  158.7910 H       1  UNL1        0.1582
     12 O         139.6298  146.2295  160.4365 O.3     1  UNL1       -0.4345
     13 C         139.3747  145.1349  162.7789 C.3     1  UNL1        0.0513
     14 C         139.6911  146.3317  161.9318 C.3     1  UNL1        0.2102
     15 C         140.5780  138.9260  160.0239 C.ar    1  UNL1       -0.0036
     16 C         141.5115  139.3024  161.1361 C.ar    1  UNL1       -0.0025
     17 C         141.1069  139.0785  162.5631 C.ar    1  UNL1        0.0042
     18 C         139.7689  138.4782  162.8779 C.ar    1  UNL1        0.0536
     19 C         138.8353  138.1018  161.7657 C.ar    1  UNL1        0.0042
     20 C         139.2398  138.3257  160.3388 C.ar    1  UNL1       -0.0025
     21 C         139.3643  138.2543  164.3048 C.2     1  UNL1        0.2491
     22 O         139.8282  137.0272  165.0322 O.2     1  UNL1       -0.2699
     23 N         138.4960  139.2576  165.0044 N.am    1  UNL1       -0.2743
     24 C         138.0914  139.0336  166.4314 C.3     1  UNL1        0.1152
     25 C         138.0321  140.4847  164.2771 C.3     1  UNL1        0.0938
     26 C         138.5578  141.8333  164.6706 C.3     1  UNL1        0.0233
     27 N         141.3617  137.9838  157.7331 N.3     1  UNL1       -0.2644
     28 C         140.4059  137.4786  156.6933 C.3     1  UNL1        0.0901
     29 C         140.7851  136.3125  155.8294 C.3     1  UNL1        0.0900
     30 N         142.1200  135.6514  156.0053 N.3     1  UNL1       -0.2652
     31 C         143.0759  136.1566  157.0452 C.3     1  UNL1        0.0900
     32 C         142.6967  137.3228  157.9091 C.3     1  UNL1        0.0901
     33 C         142.4992  134.4853  155.1415 C.3     1  UNL1        0.1181
     34 C         142.7776  133.1495  155.7645 C.ar    1  UNL1        0.0703
     35 C         141.9735  131.8990  155.5653 C.ar    1  UNL1        0.1140
     36 N         142.6079  130.8063  156.3738 N.ar    1  UNL1       -0.2299
     37 C         143.8040  131.3817  157.0728 C.ar    1  UNL1        0.1173
     38 C         144.7322  130.6391  157.9877 C.3     1  UNL1        0.0716
     39 N         143.9088  132.8298  156.6962 N.ar    1  UNL1       -0.3430
     40 H         144.5989  133.4598  157.0061 H       1  UNL1        0.1668
@<TRIPOS>BOND
     1    13    14    1
     2    14    12    1
     3    12     8    1
     4     8     9    2
     5     8    10   am
     6    10     2    1
     7     2     3   ar
     8     3     4   ar
     9     4     5   ar
    10     5     6   ar
    11     6     1    1
    12     1    15    1
    13    15    16   ar
    14    16    17   ar
    15    17    18   ar
    16    18    21    1
    17    21    22    2
    18    21    23   am
    19    23    24    1
    20    23    25    1
    21    25    26    1
    22    18    19   ar
    23    19    20   ar
    24     1    27    1
    25    27    28    1
    26    28    29    1
    27    29    30    1
    28    30    33    1
    29    33    34    1
    30    34    35   ar
    31    35    36   ar
    32    36    37   ar
    33    37    38    1
    34    37    39   ar
    35    30    31    1
    36    31    32    1
    37     6     7   ar
    38     7     2   ar
    39    20    15   ar
    40    32    27    1
    41    39    34   ar
    42    10    11    1
    43    39    40    1
@<TRIPOS>MOLECULE
*****
 40 43 0 0 0
SMALL
GASTEIGER

@<TRIPOS>ATOM
      1 C         142.0922  138.7692  158.4343 C.3     1  UNL1        0.1031
      2 C         143.7875  142.2275  159.3917 C.ar    1  UNL1        0.0529
      3 C         144.7496  142.3962  158.2534 C.ar    1  UNL1        0.0147
      4 C         144.8260  141.3560  157.1754 C.ar    1  UNL1        0.0010
      5 C         143.9402  140.1470  157.2357 C.ar    1  UNL1       -0.0026
      6 C         142.9780  139.9783  158.3739 C.ar    1  UNL1       -0.0024
      7 C         142.9017  141.0185  159.4519 C.ar    1  UNL1        0.0121
      8 C         144.4999  143.0969  161.7340 C.2     1  UNL1        0.4054
      9 O         145.3651  141.8858  161.9204 O.2     1  UNL1       -0.2261
     10 N         143.7111  143.2677  160.4697 N.am    1  UNL1       -0.2499
     11 H         143.1432  144.0626  160.3473 H       1  UNL1        0.1582
     12 O         144.4235  144.1371  162.8120 O.3     1  UNL1       -0.4345
     13 C         144.5577  143.6143  165.3534 C.3     1  UNL1        0.0513
     14 C         143.7430  143.8223  164.1112 C.3     1  UNL1        0.2102
     15 C         141.9952  137.8508  157.2523 C.ar    1  UNL1       -0.0036
     16 C         142.9817  136.7328  157.0884 C.ar    1  UNL1       -0.0025
     17 C         142.8847  135.8143  155.9064 C.ar    1  UNL1        0.0042
     18 C         141.8013  136.0138  154.8884 C.ar    1  UNL1        0.0536
     19 C         140.8148  137.1318  155.0524 C.ar    1  UNL1        0.0042
     20 C         140.9117  138.0503  156.2343 C.ar    1  UNL1       -0.0025
     21 C         141.7043  135.0954  153.7065 C.2     1  UNL1        0.2491
     22 O         141.8835  135.6369  152.3191 O.2     1  UNL1       -0.2699
     23 N         141.4283  133.6354  153.9119 N.am    1  UNL1       -0.2743
     24 C         141.3313  132.7169  152.7298 C.3     1  UNL1        0.1152
     25 C         141.2491  133.0938  155.2991 C.3     1  UNL1        0.0938
     26 C         142.2322  132.1042  155.8507 C.3     1  UNL1        0.0233
     27 N         141.3033  138.4788  159.6765 N.3     1  UNL1       -0.2644
     28 C         141.9983  137.9702  160.9046 C.3     1  UNL1        0.0901
     29 C         141.2094  137.6797  162.1469 C.3     1  UNL1        0.0900
     30 N         139.7255  137.8978  162.1611 N.3     1  UNL1       -0.2652
     31 C         139.0303  138.4064  160.9330 C.3     1  UNL1        0.0900
     32 C         139.8192  138.6969  159.6907 C.3     1  UNL1        0.0901
     33 C         138.9366  137.6073  163.4034 C.3     1  UNL1        0.1181
     34 C         139.0080  138.5434  164.5732 C.ar    1  UNL1        0.0703
     35 C         138.4012  138.3126  165.9255 C.ar    1  UNL1        0.1140
     36 N         138.7169  139.5013  166.7842 N.ar    1  UNL1       -0.2299
     37 C         139.5188  140.4667  165.9626 C.ar    1  UNL1        0.1173
     38 C         140.0480  141.7915  166.4262 C.3     1  UNL1        0.0716
     39 N         139.6987  139.8747  164.5962 N.ar    1  UNL1       -0.3430
     40 H         140.1848  140.2874  163.8461 H       1  UNL1        0.1668
@<TRIPOS>BOND
     1    13    14    1
     2    14    12    1
     3    12     8    1
     4     8     9    2
     5     8    10   am
     6    10     2    1
     7     2     3   ar
     8     3     4   ar
     9     4     5   ar
    10     5     6   ar
    11     6     1    1
    12     1    15    1
    13    15    16   ar
    14    16    17   ar
    15    17    18   ar
    16    18    21    1
    17    21    22    2
    18    21    23   am
    19    23    24    1
    20    23    25    1
    21    25    26    1
    22    18    19   ar
    23    19    20   ar
    24     1    27    1
    25    27    28    1
    26    28    29    1
    27    29    30    1
    28    30    33    1
    29    33    34    1
    30    34    35   ar
    31    35    36   ar
    32    36    37   ar
    33    37    38    1
    34    37    39   ar
    35    30    31    1
    36    31    32    1
    37     6     7   ar
    38     7     2   ar
    39    20    15   ar
    40    32    27    1
    41    39    34   ar
    42    10    11    1
    43    39    40    1
@<TRIPOS>MOLECULE
*****
 40 43 0 0 0
SMALL
GASTEIGER

@<TRIPOS>ATOM
      1 C         142.5294  138.2076  157.8906 C.3     1  UNL1        0.1031
      2 C         143.2445  134.8208  155.9493 C.ar    1  UNL1        0.0529
      3 C         142.0254  134.7294  155.0802 C.ar    1  UNL1        0.0147
      4 C         140.9742  135.7974  155.1479 C.ar    1  UNL1        0.0010
      5 C         141.1422  136.9568  156.0847 C.ar    1  UNL1       -0.0026
      6 C         142.3613  137.0482  156.9538 C.ar    1  UNL1       -0.0024
      7 C         143.4124  135.9802  156.8861 C.ar    1  UNL1        0.0121
      8 C         144.0273  132.3983  156.4675 C.2     1  UNL1        0.4054
      9 O         142.7079  132.1117  157.1211 O.2     1  UNL1       -0.2261
     10 N         144.2956  133.7528  155.8817 N.am    1  UNL1       -0.2499
     11 H         145.1615  133.9409  155.4528 H       1  UNL1        0.1582
     12 O         145.0784  131.3303  156.3998 O.3     1  UNL1       -0.4345
     13 C         144.3456  130.1049  154.2293 C.3     1  UNL1        0.0513
     14 C         144.8065  130.0565  155.6559 C.3     1  UNL1        0.2102
     15 C         141.7299  138.2696  159.1582 C.ar    1  UNL1       -0.0036
     16 C         140.3139  138.7636  159.1285 C.ar    1  UNL1       -0.0025
     17 C         139.5144  138.8255  160.3962 C.ar    1  UNL1        0.0042
     18 C         140.1308  138.3935  161.6935 C.ar    1  UNL1        0.0536
     19 C         141.5469  137.8995  161.7233 C.ar    1  UNL1        0.0042
     20 C         142.3464  137.8375  160.4557 C.ar    1  UNL1       -0.0025
     21 C         139.3313  138.4554  162.9612 C.2     1  UNL1        0.2491
     22 O         138.5711  137.2496  163.4281 O.2     1  UNL1       -0.2699
     23 N         139.2920  139.7232  163.7619 N.am    1  UNL1       -0.2743
     24 C         138.4924  139.7852  165.0296 C.3     1  UNL1        0.1152
     25 C         140.0522  140.9291  163.2950 C.3     1  UNL1        0.0938
     26 C         141.4338  141.1929  163.8162 C.3     1  UNL1        0.0233
     27 N         143.4970  139.3050  157.5597 N.3     1  UNL1       -0.2644
     28 C         144.2207  139.2959  156.2460 C.3     1  UNL1        0.0901
     29 C         145.1883  140.3933  155.9151 C.3     1  UNL1        0.0900
     30 N         145.4321  141.4998  156.8980 N.3     1  UNL1       -0.2652
     31 C         144.7083  141.5090  158.2119 C.3     1  UNL1        0.0900
     32 C         143.7408  140.4116  158.5427 C.3     1  UNL1        0.0901
     33 C         146.3997  142.5973  156.5671 C.3     1  UNL1        0.1181
     34 C         147.4768  142.3658  155.5493 C.ar    1  UNL1        0.0703
     35 C         147.4657  142.8473  154.1287 C.ar    1  UNL1        0.1140
     36 N         148.7362  142.3913  153.4747 N.ar    1  UNL1       -0.2299
     37 C         149.5326  141.6279  154.4911 C.ar    1  UNL1        0.1173
     38 C         150.8722  140.9919  154.2650 C.3     1  UNL1        0.0716
     39 N         148.7543  141.6122  155.7732 N.ar    1  UNL1       -0.3430
     40 H         149.0329  141.1826  156.6141 H       1  UNL1        0.1668
@<TRIPOS>BOND
     1    13    14    1
     2    14    12    1
     3    12     8    1
     4     8     9    2
     5     8    10   am
     6    10     2    1
     7     2     3   ar
     8     3     4   ar
     9     4     5   ar
    10     5     6   ar
    11     6     1    1
    12     1    15    1
    13    15    16   ar
    14    16    17   ar
    15    17    18   ar
    16    18    21    1
    17    21    22    2
    18    21    23   am
    19    23    24    1
    20    23    25    1
    21    25    26    1
    22    18    19   ar
    23    19    20   ar
    24     1    27    1
    25    27    28    1
    26    28    29    1
    27    29    30    1
    28    30    33    1
    29    33    34    1
    30    34    35   ar
    31    35    36   ar
    32    36    37   ar
    33    37    38    1
    34    37    39   ar
    35    30    31    1
    36    31    32    1
    37     6     7   ar
    38     7     2   ar
    39    20    15   ar
    40    32    27    1
    41    39    34   ar
    42    10    11    1
    43    39    40    1
@<TRIPOS>MOLECULE
*****
 40 43 0 0 0
SMALL
GASTEIGER

@<TRIPOS>ATOM
      1 C         138.3164  142.1818  156.8014 C.3     1  UNL1        0.1031
      2 C         134.9461  140.4363  155.6421 C.ar    1  UNL1        0.0529
      3 C         135.4617  139.4878  154.6008 C.ar    1  UNL1        0.0147
      4 C         136.9289  139.4372  154.2930 C.ar    1  UNL1        0.0010
      5 C         137.8805  140.3352  155.0265 C.ar    1  UNL1       -0.0026
      6 C         137.3649  141.2837  156.0678 C.ar    1  UNL1       -0.0024
      7 C         135.8977  141.3343  156.3756 C.ar    1  UNL1        0.0121
      8 C         132.9575  139.8809  157.2192 C.2     1  UNL1        0.4054
      9 O         133.9034  139.2244  158.1807 O.2     1  UNL1       -0.2261
     10 N         133.4789  140.4868  155.9500 N.am    1  UNL1       -0.2499
     11 H         132.8581  140.9176  155.3189 H       1  UNL1        0.1582
     12 O         131.4903  139.9314  157.5270 O.3     1  UNL1       -0.4345
     13 C         130.2664  137.9008  156.4646 C.3     1  UNL1        0.0513
     14 C         130.7119  138.6583  157.6802 C.3     1  UNL1        0.2102
     15 C         138.6376  143.5411  156.2544 C.ar    1  UNL1       -0.0036
     16 C         137.6299  144.2690  155.4149 C.ar    1  UNL1       -0.0025
     17 C         137.9510  145.6283  154.8679 C.ar    1  UNL1        0.0042
     18 C         139.2798  146.2597  155.1604 C.ar    1  UNL1        0.0536
     19 C         140.2875  145.5318  155.9999 C.ar    1  UNL1        0.0042
     20 C         139.9664  144.1725  156.5469 C.ar    1  UNL1       -0.0025
     21 C         139.6010  147.6190  154.6134 C.2     1  UNL1        0.2491
     22 O         140.3068  147.7499  153.2963 O.2     1  UNL1       -0.2699
     23 N         139.2163  148.8474  155.3835 N.am    1  UNL1       -0.2743
     24 C         139.5375  150.2067  154.8365 C.3     1  UNL1        0.1152
     25 C         138.5106  148.7165  156.7006 C.3     1  UNL1        0.0938
     26 C         138.1929  149.9413  157.5062 C.3     1  UNL1        0.0233
     27 N         138.9469  141.7205  158.0819 N.3     1  UNL1       -0.2644
     28 C         140.0579  140.7133  158.0507 C.3     1  UNL1        0.0901
     29 C         140.6884  140.2521  159.3312 C.3     1  UNL1        0.0900
     30 N         140.2077  140.7980  160.6430 N.3     1  UNL1       -0.2652
     31 C         139.0966  141.8052  160.6743 C.3     1  UNL1        0.0900
     32 C         138.4661  142.2665  159.3938 C.3     1  UNL1        0.0901
     33 C         140.8381  140.3367  161.9236 C.3     1  UNL1        0.1181
     34 C         140.0686  139.4575  162.8642 C.ar    1  UNL1        0.0703
     35 C         139.6471  138.0420  162.6024 C.ar    1  UNL1        0.1140
     36 N         138.9035  137.5491  163.8082 N.ar    1  UNL1       -0.2299
     37 C         138.8654  138.6602  164.8154 C.ar    1  UNL1        0.1173
     38 C         138.2205  138.6019  166.1684 C.3     1  UNL1        0.0716
     39 N         139.5855  139.8396  164.2319 N.ar    1  UNL1       -0.3430
     40 H         139.7178  140.7114  164.6698 H       1  UNL1        0.1668
@<TRIPOS>BOND
     1    13    14    1
     2    14    12    1
     3    12     8    1
     4     8     9    2
     5     8    10   am
     6    10     2    1
     7     2     3   ar
     8     3     4   ar
     9     4     5   ar
    10     5     6   ar
    11     6     1    1
    12     1    15    1
    13    15    16   ar
    14    16    17   ar
    15    17    18   ar
    16    18    21    1
    17    21    22    2
    18    21    23   am
    19    23    24    1
    20    23    25    1
    21    25    26    1
    22    18    19   ar
    23    19    20   ar
    24     1    27    1
    25    27    28    1
    26    28    29    1
    27    29    30    1
    28    30    33    1
    29    33    34    1
    30    34    35   ar
    31    35    36   ar
    32    36    37   ar
    33    37    38    1
    34    37    39   ar
    35    30    31    1
    36    31    32    1
    37     6     7   ar
    38     7     2   ar
    39    20    15   ar
    40    32    27    1
    41    39    34   ar
    42    10    11    1
    43    39    40    1
@<TRIPOS>MOLECULE
*****
 40 43 0 0 0
SMALL
GASTEIGER

@<TRIPOS>ATOM
      1 C         140.7984  139.1080  158.2854 C.3     1  UNL1        0.1031
      2 C         140.0063  142.9717  158.7267 C.ar    1  UNL1        0.0529
      3 C         140.2019  143.4632  157.3232 C.ar    1  UNL1        0.0147
      4 C         140.5963  142.5031  156.2403 C.ar    1  UNL1        0.0010
      5 C         140.7951  141.0513  156.5611 C.ar    1  UNL1       -0.0026
      6 C         140.5995  140.5598  157.9646 C.ar    1  UNL1       -0.0024
      7 C         140.2051  141.5199  159.0475 C.ar    1  UNL1        0.0121
      8 C         140.6336  144.8582  160.3993 C.2     1  UNL1        0.4054
      9 O         142.0499  144.8245  159.9061 O.2     1  UNL1       -0.2261
     10 N         139.6118  143.9318  159.8096 N.am    1  UNL1       -0.2499
     11 H         138.6823  143.9540  160.1332 H       1  UNL1        0.1582
     12 O         140.2392  145.8184  161.4821 O.3     1  UNL1       -0.4345
     13 C         141.8098  145.2578  163.4744 C.3     1  UNL1        0.0513
     14 C         140.4275  145.4432  162.9222 C.3     1  UNL1        0.2102
     15 C         141.0256  138.1199  157.1800 C.ar    1  UNL1       -0.0036
     16 C         142.4221  137.7175  156.8090 C.ar    1  UNL1       -0.0025
     17 C         142.6492  136.7293  155.7035 C.ar    1  UNL1        0.0042
     18 C         141.4798  136.1437  154.9691 C.ar    1  UNL1        0.0536
     19 C         140.0833  136.5461  155.3400 C.ar    1  UNL1        0.0042
     20 C         139.8561  137.5342  156.4455 C.ar    1  UNL1       -0.0025
     21 C         141.7070  135.1556  153.8636 C.2     1  UNL1        0.2491
     22 O         141.8885  135.6357  152.4541 O.2     1  UNL1       -0.2699
     23 N         141.7527  133.6874  154.1676 N.am    1  UNL1       -0.2743
     24 C         141.9798  132.6993  153.0621 C.3     1  UNL1        0.1152
     25 C         141.5712  133.2074  155.5770 C.3     1  UNL1        0.0938
     26 C         142.7697  132.9363  156.4373 C.3     1  UNL1        0.0233
     27 N         140.7701  138.6444  159.7117 N.3     1  UNL1       -0.2644
     28 C         139.4595  138.3449  160.3771 C.3     1  UNL1        0.0901
     29 C         139.4312  137.8813  161.8034 C.3     1  UNL1        0.0900
     30 N         140.7134  137.7171  162.5643 N.3     1  UNL1       -0.2652
     31 C         142.0240  138.0166  161.8989 C.3     1  UNL1        0.0900
     32 C         142.0524  138.4803  160.4726 C.3     1  UNL1        0.0901
     33 C         140.6851  137.2535  163.9905 C.3     1  UNL1        0.1181
     34 C         140.0579  138.1144  165.0467 C.ar    1  UNL1        0.0703
     35 C         138.6429  138.0201  165.5355 C.ar    1  UNL1        0.1140
     36 N         138.4460  139.0682  166.5904 N.ar    1  UNL1       -0.2299
     37 C         139.7395  139.8102  166.7536 C.ar    1  UNL1        0.1173
     38 C         139.9923  140.9428  167.7039 C.3     1  UNL1        0.0716
     39 N         140.7356  139.2207  165.7995 N.ar    1  UNL1       -0.3430
     40 H         141.6701  139.5093  165.6872 H       1  UNL1        0.1668
@<TRIPOS>BOND
     1    13    14    1
     2    14    12    1
     3    12     8    1
     4     8     9    2
     5     8    10   am
     6    10     2    1
     7     2     3   ar
     8     3     4   ar
     9     4     5   ar
    10     5     6   ar
    11     6     1    1
    12     1    15    1
    13    15    16   ar
    14    16    17   ar
    15    17    18   ar
    16    18    21    1
    17    21    22    2
    18    21    23   am
    19    23    24    1
    20    23    25    1
    21    25    26    1
    22    18    19   ar
    23    19    20   ar
    24     1    27    1
    25    27    28    1
    26    28    29    1
    27    29    30    1
    28    30    33    1
    29    33    34    1
    30    34    35   ar
    31    35    36   ar
    32    36    37   ar
    33    37    38    1
    34    37    39   ar
    35    30    31    1
    36    31    32    1
    37     6     7   ar
    38     7     2   ar
    39    20    15   ar
    40    32    27    1
    41    39    34   ar
    42    10    11    1
    43    39    40    1
@<TRIPOS>MOLECULE
*****
 40 43 0 0 0
SMALL
GASTEIGER

@<TRIPOS>ATOM
      1 C         141.2035  139.3985  159.2149 C.3     1  UNL1        0.1031
      2 C         142.5383  143.0979  159.7473 C.ar    1  UNL1        0.0529
      3 C         142.8451  143.4947  158.3337 C.ar    1  UNL1        0.0147
      4 C         142.6048  142.5261  157.2138 C.ar    1  UNL1        0.0010
      5 C         142.0576  141.1608  157.5075 C.ar    1  UNL1       -0.0026
      6 C         141.7507  140.7640  158.9212 C.ar    1  UNL1       -0.0024
      7 C         141.9911  141.7325  160.0410 C.ar    1  UNL1        0.0121
      8 C         143.9434  143.8699  161.7917 C.2     1  UNL1        0.4054
      9 O         144.8678  142.7049  161.5964 O.2     1  UNL1       -0.2261
     10 N         142.7786  144.0664  160.8672 N.am    1  UNL1       -0.2499
     11 H         142.1719  144.8311  160.9954 H       1  UNL1        0.1582
     12 O         144.1837  144.8385  162.9116 O.3     1  UNL1       -0.4345
     13 C         144.4320  143.6050  165.1847 C.3     1  UNL1        0.0513
     14 C         143.6704  144.5357  164.2882 C.3     1  UNL1        0.2102
     15 C         140.6256  139.0969  160.5658 C.ar    1  UNL1       -0.0036
     16 C         141.4986  138.5287  161.6452 C.ar    1  UNL1       -0.0025
     17 C         140.9207  138.2270  162.9962 C.ar    1  UNL1        0.0042
     18 C         139.4697  138.4935  163.2677 C.ar    1  UNL1        0.0536
     19 C         138.5967  139.0617  162.1884 C.ar    1  UNL1        0.0042
     20 C         139.1746  139.3634  160.8375 C.ar    1  UNL1       -0.0025
     21 C         138.8919  138.1919  164.6186 C.2     1  UNL1        0.2491
     22 O         138.6048  136.7730  165.0118 O.2     1  UNL1       -0.2699
     23 N         138.6010  139.3090  165.5764 N.am    1  UNL1       -0.2743
     24 C         138.0231  139.0072  166.9274 C.3     1  UNL1        0.1152
     25 C         138.8880  140.7278  165.1834 C.3     1  UNL1        0.0938
     26 C         139.7102  141.6033  166.0819 C.3     1  UNL1        0.0233
     27 N         141.2342  138.3348  158.1578 N.3     1  UNL1       -0.2644
     28 C         140.0159  138.0713  157.3234 C.3     1  UNL1        0.0901
     29 C         140.0465  137.0076  156.2662 C.3     1  UNL1        0.0900
     30 N         141.2956  136.2075  156.0434 N.3     1  UNL1       -0.2652
     31 C         142.5140  136.4710  156.8778 C.3     1  UNL1        0.0900
     32 C         142.4833  137.5347  157.9349 C.3     1  UNL1        0.0901
     33 C         141.3263  135.1438  154.9862 C.3     1  UNL1        0.1181
     34 C         141.9446  133.8097  155.2823 C.ar    1  UNL1        0.0703
     35 C         141.2101  132.5097  155.4256 C.ar    1  UNL1        0.1140
     36 N         142.2175  131.4378  155.7190 N.ar    1  UNL1       -0.2299
     37 C         143.5748  132.0755  155.7571 C.ar    1  UNL1        0.1173
     38 C         144.8729  131.3709  156.0191 C.3     1  UNL1        0.0716
     39 N         143.4061  133.5413  155.4872 N.ar    1  UNL1       -0.3430
     40 H         144.1279  134.2098  155.4510 H       1  UNL1        0.1668
@<TRIPOS>BOND
     1    13    14    1
     2    14    12    1
     3    12     8    1
     4     8     9    2
     5     8    10   am
     6    10     2    1
     7     2     3   ar
     8     3     4   ar
     9     4     5   ar
    10     5     6   ar
    11     6     1    1
    12     1    15    1
    13    15    16   ar
    14    16    17   ar
    15    17    18   ar
    16    18    21    1
    17    21    22    2
    18    21    23   am
    19    23    24    1
    20    23    25    1
    21    25    26    1
    22    18    19   ar
    23    19    20   ar
    24     1    27    1
    25    27    28    1
    26    28    29    1
    27    29    30    1
    28    30    33    1
    29    33    34    1
    30    34    35   ar
    31    35    36   ar
    32    36    37   ar
    33    37    38    1
    34    37    39   ar
    35    30    31    1
    36    31    32    1
    37     6     7   ar
    38     7     2   ar
    39    20    15   ar
    40    32    27    1
    41    39    34   ar
    42    10    11    1
    43    39    40    1
@<TRIPOS>MOLECULE
*****
 40 43 0 0 0
SMALL
GASTEIGER

@<TRIPOS>ATOM
      1 C         142.5906  140.3926  158.9097 C.3     1  UNL1        0.1031
      2 C         141.7921  139.8733  162.7623 C.ar    1  UNL1        0.0529
      3 C         143.1564  140.0479  163.3606 C.ar    1  UNL1        0.0147
      4 C         144.3322  140.3373  162.4753 C.ar    1  UNL1        0.0010
      5 C         144.1436  140.4522  160.9917 C.ar    1  UNL1       -0.0026
      6 C         142.7793  140.2777  160.3934 C.ar    1  UNL1       -0.0024
      7 C         141.6035  139.9882  161.2787 C.ar    1  UNL1        0.0121
      8 C         140.1068  138.1795  163.7826 C.2     1  UNL1        0.4054
      9 O         140.7731  137.0646  163.0322 O.2     1  UNL1       -0.2261
     10 N         140.6163  139.5839  163.6476 N.am    1  UNL1       -0.2499
     11 H         140.1790  140.3156  164.1401 H       1  UNL1        0.1582
     12 O         138.9311  137.8901  164.6679 O.3     1  UNL1       -0.4345
     13 C         137.6194  138.3190  166.8692 C.3     1  UNL1        0.0513
     14 C         138.7203  138.6890  165.9199 C.3     1  UNL1        0.2102
     15 C         142.1084  141.6813  158.3125 C.ar    1  UNL1       -0.0036
     16 C         140.7387  141.7608  157.7063 C.ar    1  UNL1       -0.0025
     17 C         140.2565  143.0496  157.1091 C.ar    1  UNL1        0.0042
     18 C         141.1440  144.2588  157.1182 C.ar    1  UNL1        0.0536
     19 C         142.5137  144.1793  157.7245 C.ar    1  UNL1        0.0042
     20 C         142.9959  142.8906  158.3216 C.ar    1  UNL1       -0.0025
     21 C         140.6617  145.5476  156.5211 C.2     1  UNL1        0.2491
     22 O         139.9321  146.5427  157.3740 O.2     1  UNL1       -0.2699
     23 N         140.9091  145.8412  155.0711 N.am    1  UNL1       -0.2743
     24 C         140.4268  147.1300  154.4739 C.3     1  UNL1        0.1152
     25 C         141.6387  144.8461  154.2182 C.3     1  UNL1        0.0938
     26 C         143.1186  144.9777  154.0116 C.3     1  UNL1        0.0233
     27 N         142.8843  139.2188  158.0232 N.3     1  UNL1       -0.2644
     28 C         142.5439  137.8309  158.4792 C.3     1  UNL1        0.0901
     29 C         142.8375  136.6570  157.5927 C.3     1  UNL1        0.0900
     30 N         143.4715  136.8710  156.2502 N.3     1  UNL1       -0.2652
     31 C         143.8119  138.2590  155.7942 C.3     1  UNL1        0.0900
     32 C         143.5183  139.4328  156.6807 C.3     1  UNL1        0.0901
     33 C         143.7651  135.6972  155.3637 C.3     1  UNL1        0.1181
     34 C         143.5929  134.3015  155.8857 C.ar    1  UNL1        0.0703
     35 C         142.3719  133.4449  155.7262 C.ar    1  UNL1        0.1140
     36 N         142.6358  132.1314  156.4007 N.ar    1  UNL1       -0.2299
     37 C         144.0199  132.1763  156.9772 C.ar    1  UNL1        0.1173
     38 C         144.6941  131.0735  157.7383 C.3     1  UNL1        0.0716
     39 N         144.6114  133.5175  156.6589 N.ar    1  UNL1       -0.3430
     40 H         145.5103  133.8285  156.9128 H       1  UNL1        0.1668
@<TRIPOS>BOND
     1    13    14    1
     2    14    12    1
     3    12     8    1
     4     8     9    2
     5     8    10   am
     6    10     2    1
     7     2     3   ar
     8     3     4   ar
     9     4     5   ar
    10     5     6   ar
    11     6     1    1
    12     1    15    1
    13    15    16   ar
    14    16    17   ar
    15    17    18   ar
    16    18    21    1
    17    21    22    2
    18    21    23   am
    19    23    24    1
    20    23    25    1
    21    25    26    1
    22    18    19   ar
    23    19    20   ar
    24     1    27    1
    25    27    28    1
    26    28    29    1
    27    29    30    1
    28    30    33    1
    29    33    34    1
    30    34    35   ar
    31    35    36   ar
    32    36    37   ar
    33    37    38    1
    34    37    39   ar
    35    30    31    1
    36    31    32    1
    37     6     7   ar
    38     7     2   ar
    39    20    15   ar
    40    32    27    1
    41    39    34   ar
    42    10    11    1
    43    39    40    1
@<TRIPOS>MOLECULE
*****
 40 43 0 0 0
SMALL
GASTEIGER

@<TRIPOS>ATOM
      1 C         139.7800  140.7569  157.2168 C.3     1  UNL1        0.1031
      2 C         136.2025  141.3835  155.6171 C.ar    1  UNL1        0.0529
      3 C         136.5813  141.7717  154.2187 C.ar    1  UNL1        0.0147
      4 C         138.0264  141.8217  153.8196 C.ar    1  UNL1        0.0010
      5 C         139.0926  141.4835  154.8189 C.ar    1  UNL1       -0.0026
      6 C         138.7137  141.0952  156.2174 C.ar    1  UNL1       -0.0024
      7 C         137.2687  141.0452  156.6165 C.ar    1  UNL1        0.0121
      8 C         134.0229  140.0256  156.0117 C.2     1  UNL1        0.4054
      9 O         134.7335  138.7677  155.6081 O.2     1  UNL1       -0.2261
     10 N         134.7574  141.3335  156.0162 N.am    1  UNL1       -0.2499
     11 H         134.2910  142.1590  156.2811 H       1  UNL1        0.1582
     12 O         132.5778  139.9756  156.4108 O.3     1  UNL1       -0.4345
     13 C         130.8508  138.6297  157.8093 C.3     1  UNL1        0.0513
     14 C         131.9488  138.6672  156.7880 C.3     1  UNL1        0.2102
     15 C         139.8993  141.5508  158.4839 C.ar    1  UNL1       -0.0036
     16 C         140.1313  140.8495  159.7893 C.ar    1  UNL1       -0.0025
     17 C         140.2507  141.6435  161.0564 C.ar    1  UNL1        0.0042
     18 C         140.1381  143.1387  161.0180 C.ar    1  UNL1        0.0536
     19 C         139.9061  143.8401  159.7125 C.ar    1  UNL1        0.0042
     20 C         139.7867  143.0462  158.4454 C.ar    1  UNL1       -0.0025
     21 C         140.2574  143.9327  162.2850 C.2     1  UNL1        0.2491
     22 O         141.5546  144.6014  162.6317 O.2     1  UNL1       -0.2699
     23 N         139.0796  144.0579  163.2054 N.am    1  UNL1       -0.2743
     24 C         139.1991  144.8519  164.4725 C.3     1  UNL1        0.1152
     25 C         137.7825  143.3892  162.8587 C.3     1  UNL1        0.0938
     26 C         137.4328  142.0664  163.4735 C.3     1  UNL1        0.0233
     27 N         140.7268  139.6247  156.9492 N.3     1  UNL1       -0.2644
     28 C         140.2182  138.2140  156.9144 C.3     1  UNL1        0.0901
     29 C         141.1650  137.0818  156.6467 C.3     1  UNL1        0.0900
     30 N         142.6204  137.3603  156.4138 N.3     1  UNL1       -0.2652
     31 C         143.1290  138.7711  156.4486 C.3     1  UNL1        0.0900
     32 C         142.1822  139.9033  156.7162 C.3     1  UNL1        0.0901
     33 C         143.5672  136.2281  156.1461 C.3     1  UNL1        0.1181
     34 C         143.0849  134.8105  156.2333 C.ar    1  UNL1        0.0703
     35 C         143.3175  133.8687  157.3774 C.ar    1  UNL1        0.1140
     36 N         142.6616  132.5619  157.0429 N.ar    1  UNL1       -0.2299
     37 C         142.0235  132.6960  155.6919 C.ar    1  UNL1        0.1173
     38 C         141.2582  131.6279  154.9684 C.3     1  UNL1        0.0716
     39 N         142.2851  134.0857  155.1916 N.ar    1  UNL1       -0.3430
     40 H         141.9847  134.4569  154.3307 H       1  UNL1        0.1668
@<TRIPOS>BOND
     1    13    14    1
     2    14    12    1
     3    12     8    1
     4     8     9    2
     5     8    10   am
     6    10     2    1
     7     2     3   ar
     8     3     4   ar
     9     4     5   ar
    10     5     6   ar
    11     6     1    1
    12     1    15    1
    13    15    16   ar
    14    16    17   ar
    15    17    18   ar
    16    18    21    1
    17    21    22    2
    18    21    23   am
    19    23    24    1
    20    23    25    1
    21    25    26    1
    22    18    19   ar
    23    19    20   ar
    24     1    27    1
    25    27    28    1
    26    28    29    1
    27    29    30    1
    28    30    33    1
    29    33    34    1
    30    34    35   ar
    31    35    36   ar
    32    36    37   ar
    33    37    38    1
    34    37    39   ar
    35    30    31    1
    36    31    32    1
    37     6     7   ar
    38     7     2   ar
    39    20    15   ar
    40    32    27    1
    41    39    34   ar
    42    10    11    1
    43    39    40    1
