@<TRIPOS>MOLECULE
*****
 30 33 0 0 0
SMALL
GASTEIGER

@<TRIPOS>ATOM
      1 C         144.8543  142.4109  161.4083 C.3     1  UNL1        0.0493
      2 C         143.8715  142.8640  162.4468 C.2     1  UNL1        0.0588
      3 N         143.7690  142.3441  163.8501 N.2     1  UNL1       -0.2525
      4 C         142.6527  143.0753  164.5350 C.2     1  UNL1        0.0748
      5 C         142.0653  144.0472  163.5550 C.2     1  UNL1       -0.0034
      6 C         140.9248  144.9850  163.8193 C.3     1  UNL1        0.0300
      7 C         142.8185  143.9166  162.2645 C.3     1  UNL1        0.1281
      8 C         142.2029  142.8706  165.9513 C.2     1  UNL1        0.0231
      9 C         141.1798  141.8206  166.2689 C.2     1  UNL1        0.0564
     10 C         140.5208  140.9043  165.2810 C.2     1  UNL1        0.2496
     11 O         140.7692  140.8770  163.8019 O.2     1  UNL1       -0.2698
     12 N         139.5699  140.0200  166.0318 N.am    1  UNL1       -0.2804
     13 C         139.6411  140.3898  167.4838 C.ar    1  UNL1        0.0508
     14 C         138.9285  139.8570  168.6913 C.ar    1  UNL1        0.0170
     15 C         139.2109  140.4371  170.0455 C.ar    1  UNL1        0.0309
     16 C         140.2059  141.5500  170.1920 C.ar    1  UNL1        0.1402
     17 F         140.4883  142.1300  171.5463 F       1  UNL1       -0.2042
     18 C         140.9185  142.0828  168.9845 C.ar    1  UNL1        0.0310
     19 C         140.6361  141.5027  167.6303 C.ar    1  UNL1        0.0201
     20 H         138.9991  139.3198  165.6403 H       1  UNL1        0.1552
     21 N         142.5635  144.7009  161.0115 N.am    1  UNL1       -0.2968
     22 C         141.7185  144.1153  159.9192 C.2     1  UNL1        0.2372
     23 O         141.1285  142.7456  160.0797 O.2     1  UNL1       -0.2736
     24 H         142.9507  145.5999  160.9061 H       1  UNL1        0.1500
     25 C         141.4635  144.8996  158.6662 C.3     1  UNL1        0.1315
     26 C         140.1253  145.3678  158.1761 C.3     1  UNL1        0.0265
     27 C         140.3367  146.1109  156.8904 C.3     1  UNL1        0.0190
     28 C         141.8054  146.1021  156.5859 C.3     1  UNL1        0.0689
     29 N         142.5018  145.3535  157.6834 N.3     1  UNL1       -0.2913
     30 H         143.1736  145.9649  158.1473 H       1  UNL1        0.1236
@<TRIPOS>BOND
     1     1     2    1
     2     2     3    2
     3     3     4    1
     4     4     8    1
     5     8     9    2
     6     9    10    1
     7    10    11    2
     8    10    12   am
     9    12    13    1
    10    13    14   ar
    11    14    15   ar
    12    15    16   ar
    13    16    17    1
    14    16    18   ar
    15    18    19   ar
    16     4     5    2
    17     5     6    1
    18     5     7    1
    19     7    21    1
    20    21    22   am
    21    22    23    2
    22    25    22    1
    23    25    26    1
    24    26    27    1
    25    27    28    1
    26    28    29    1
    27     7     2    1
    28    29    25    1
    29    19     9    1
    30    19    13   ar
    31    12    20    1
    32    21    24    1
    33    29    30    1
@<TRIPOS>MOLECULE
*****
 30 33 0 0 0
SMALL
GASTEIGER

@<TRIPOS>ATOM
      1 C         137.3334  139.8287  160.2780 C.3     1  UNL1        0.0493
      2 C         137.8364  140.5061  161.5182 C.2     1  UNL1        0.0588
      3 N         137.9282  139.8912  162.8832 N.2     1  UNL1       -0.2525
      4 C         138.4844  140.9225  163.8197 C.2     1  UNL1        0.0748
      5 C         138.7364  142.1748  163.0334 C.2     1  UNL1       -0.0034
      6 C         139.2914  143.4589  163.5745 C.3     1  UNL1        0.0300
      7 C         138.3359  141.9174  161.6109 C.3     1  UNL1        0.1281
      8 C         138.7432  140.7345  165.2853 C.2     1  UNL1        0.0231
      9 C         140.1040  140.3174  165.7591 C.2     1  UNL1        0.0564
     10 C         141.2975  140.0531  164.8899 C.2     1  UNL1        0.2496
     11 O         141.3400  140.1595  163.3943 O.2     1  UNL1       -0.2698
     12 N         142.4412  139.6638  165.7790 N.am    1  UNL1       -0.2804
     13 C         141.9545  139.6875  167.1976 C.ar    1  UNL1        0.0508
     14 C         142.6400  139.3934  168.4990 C.ar    1  UNL1        0.0170
     15 C         141.8809  139.5033  169.7880 C.ar    1  UNL1        0.0309
     16 C         140.4364  139.9073  169.7758 C.ar    1  UNL1        0.1402
     17 F         139.6774  140.0172  171.0649 F       1  UNL1       -0.2042
     18 C         139.7509  140.2014  168.4744 C.ar    1  UNL1        0.0310
     19 C         140.5099  140.0915  167.1853 C.ar    1  UNL1        0.0201
     20 H         143.3515  139.4332  165.4833 H       1  UNL1        0.1552
     21 N         138.4201  142.8991  160.4799 N.am    1  UNL1       -0.2968
     22 C         139.7299  143.1358  159.7883 C.2     1  UNL1        0.2372
     23 O         140.9555  142.3909  160.2276 O.2     1  UNL1       -0.2736
     24 H         137.6157  143.3880  160.1915 H       1  UNL1        0.1500
     25 C         139.8141  144.1174  158.6572 C.3     1  UNL1        0.1315
     26 C         140.3641  145.5106  158.7380 C.3     1  UNL1        0.0265
     27 C         140.2530  146.1324  157.3775 C.3     1  UNL1        0.0190
     28 C         139.6344  145.1236  156.4559 C.3     1  UNL1        0.0689
     29 N         139.3632  143.8782  157.2468 N.3     1  UNL1       -0.2913
     30 H         139.8793  143.0947  156.8465 H       1  UNL1        0.1236
@<TRIPOS>BOND
     1     1     2    1
     2     2     3    2
     3     3     4    1
     4     4     8    1
     5     8     9    2
     6     9    10    1
     7    10    11    2
     8    10    12   am
     9    12    13    1
    10    13    14   ar
    11    14    15   ar
    12    15    16   ar
    13    16    17    1
    14    16    18   ar
    15    18    19   ar
    16     4     5    2
    17     5     6    1
    18     5     7    1
    19     7    21    1
    20    21    22   am
    21    22    23    2
    22    25    22    1
    23    25    26    1
    24    26    27    1
    25    27    28    1
    26    28    29    1
    27     7     2    1
    28    29    25    1
    29    19     9    1
    30    19    13   ar
    31    12    20    1
    32    21    24    1
    33    29    30    1
@<TRIPOS>MOLECULE
*****
 30 33 0 0 0
SMALL
GASTEIGER

@<TRIPOS>ATOM
      1 C         140.8310  145.0850  160.0870 C.3     1  UNL1        0.0493
      2 C         141.3810  144.4546  161.3320 C.2     1  UNL1        0.0588
      3 N         140.7360  144.4684  162.6862 N.2     1  UNL1       -0.2525
      4 C         141.6290  143.7221  163.6325 C.2     1  UNL1        0.0748
      5 C         142.8258  143.2470  162.8633 C.2     1  UNL1       -0.0034
      6 C         143.9743  142.4578  163.4183 C.3     1  UNL1        0.0300
      7 C         142.6726  143.6998  161.4414 C.3     1  UNL1        0.1281
      8 C         141.3704  143.4913  165.0920 C.2     1  UNL1        0.0231
      9 C         140.6774  142.2394  165.5422 C.2     1  UNL1        0.0564
     10 C         140.1880  141.1345  164.6536 C.2     1  UNL1        0.2496
     11 O         140.3055  141.0873  163.1590 O.2     1  UNL1       -0.2698
     12 N         139.5603  140.0849  165.5222 N.am    1  UNL1       -0.2804
     13 C         139.6618  140.5412  166.9475 C.ar    1  UNL1        0.0508
     14 C         139.2148  139.9162  168.2357 C.ar    1  UNL1        0.0170
     15 C         139.4582  140.6228  169.5363 C.ar    1  UNL1        0.0309
     16 C         140.1486  141.9544  169.5486 C.ar    1  UNL1        0.1402
     17 F         140.3920  142.6611  170.8492 F       1  UNL1       -0.2042
     18 C         140.5956  142.5794  168.2604 C.ar    1  UNL1        0.0310
     19 C         140.3523  141.8728  166.9599 C.ar    1  UNL1        0.0201
     20 H         139.1532  139.2441  165.2114 H       1  UNL1        0.1552
     21 N         143.6409  143.4428  160.3251 N.am    1  UNL1       -0.2968
     22 C         143.4741  142.2355  159.4506 C.2     1  UNL1        0.2372
     23 O         142.3389  141.2852  159.6925 O.2     1  UNL1       -0.2736
     24 H         144.3860  144.0664  160.1663 H       1  UNL1        0.1500
     25 C         144.4424  141.9785  158.3342 C.3     1  UNL1        0.1315
     26 C         144.4107  140.8131  157.3904 C.3     1  UNL1        0.0265
     27 C         145.5611  140.9561  156.4385 C.3     1  UNL1        0.0190
     28 C         146.3038  142.2098  156.7941 C.3     1  UNL1        0.0689
     29 N         145.6124  142.8417  157.9657 N.3     1  UNL1       -0.2913
     30 H         145.2880  143.7753  157.7139 H       1  UNL1        0.1236
@<TRIPOS>BOND
     1     1     2    1
     2     2     3    2
     3     3     4    1
     4     4     8    1
     5     8     9    2
     6     9    10    1
     7    10    11    2
     8    10    12   am
     9    12    13    1
    10    13    14   ar
    11    14    15   ar
    12    15    16   ar
    13    16    17    1
    14    16    18   ar
    15    18    19   ar
    16     4     5    2
    17     5     6    1
    18     5     7    1
    19     7    21    1
    20    21    22   am
    21    22    23    2
    22    25    22    1
    23    25    26    1
    24    26    27    1
    25    27    28    1
    26    28    29    1
    27     7     2    1
    28    29    25    1
    29    19     9    1
    30    19    13   ar
    31    12    20    1
    32    21    24    1
    33    29    30    1
@<TRIPOS>MOLECULE
*****
 30 33 0 0 0
SMALL
GASTEIGER

@<TRIPOS>ATOM
      1 C         137.3481  139.8934  160.5892 C.3     1  UNL1        0.0493
      2 C         138.4413  140.0295  161.6072 C.2     1  UNL1        0.0588
      3 N         138.3775  140.8426  162.8660 N.2     1  UNL1       -0.2525
      4 C         139.6870  140.6921  163.5819 C.2     1  UNL1        0.0748
      5 C         140.5601  139.7859  162.7655 C.2     1  UNL1       -0.0034
      6 C         141.9577  139.3634  163.1093 C.3     1  UNL1        0.0300
      7 C         139.7902  139.3764  161.5450 C.3     1  UNL1        0.1281
      8 C         140.0582  141.3349  164.8855 C.2     1  UNL1        0.0231
      9 C         139.6542  140.6935  166.1799 C.2     1  UNL1        0.0564
     10 C         138.8813  139.4165  166.3276 C.2     1  UNL1        0.2496
     11 O         138.3767  138.5566  165.2069 O.2     1  UNL1       -0.2698
     12 N         138.7017  139.1503  167.7928 N.am    1  UNL1       -0.2804
     13 C         139.3635  140.2628  168.5507 C.ar    1  UNL1        0.0508
     14 C         139.5062  140.5306  170.0196 C.ar    1  UNL1        0.0170
     15 C         140.2376  141.7521  170.4917 C.ar    1  UNL1        0.0309
     16 C         140.8263  142.7059  169.4948 C.ar    1  UNL1        0.1402
     17 F         141.5577  143.9275  169.9670 F       1  UNL1       -0.2042
     18 C         140.6836  142.4381  168.0259 C.ar    1  UNL1        0.0310
     19 C         139.9522  141.2166  167.5538 C.ar    1  UNL1        0.0201
     20 H         138.2318  138.3806  168.1878 H       1  UNL1        0.1552
     21 N         140.2827  138.4725  160.4540 N.am    1  UNL1       -0.2968
     22 C         141.0867  139.0354  159.3196 C.2     1  UNL1        0.2372
     23 O         141.3981  140.5021  159.2762 O.2     1  UNL1       -0.2736
     24 H         140.0784  137.5099  160.4824 H       1  UNL1        0.1500
     25 C         141.5792  138.1316  158.2285 C.3     1  UNL1        0.1315
     26 C         140.7513  137.5606  157.1156 C.3     1  UNL1        0.0265
     27 C         141.6466  136.7161  156.2581 C.3     1  UNL1        0.0190
     28 C         143.0278  136.7652  156.8410 C.3     1  UNL1        0.0689
     29 N         142.9861  137.6399  158.0588 N.3     1  UNL1       -0.2913
     30 H         143.6173  138.4320  157.9377 H       1  UNL1        0.1236
@<TRIPOS>BOND
     1     1     2    1
     2     2     3    2
     3     3     4    1
     4     4     8    1
     5     8     9    2
     6     9    10    1
     7    10    11    2
     8    10    12   am
     9    12    13    1
    10    13    14   ar
    11    14    15   ar
    12    15    16   ar
    13    16    17    1
    14    16    18   ar
    15    18    19   ar
    16     4     5    2
    17     5     6    1
    18     5     7    1
    19     7    21    1
    20    21    22   am
    21    22    23    2
    22    25    22    1
    23    25    26    1
    24    26    27    1
    25    27    28    1
    26    28    29    1
    27     7     2    1
    28    29    25    1
    29    19     9    1
    30    19    13   ar
    31    12    20    1
    32    21    24    1
    33    29    30    1
@<TRIPOS>MOLECULE
*****
 30 33 0 0 0
SMALL
GASTEIGER

@<TRIPOS>ATOM
      1 C         139.6090  146.1194  161.5104 C.3     1  UNL1        0.0493
      2 C         139.3909  145.0630  162.5528 C.2     1  UNL1        0.0588
      3 N         139.7896  145.1529  163.9960 N.2     1  UNL1       -0.2525
      4 C         139.3808  143.8768  164.6701 C.2     1  UNL1        0.0748
      5 C         138.7295  142.9983  163.6435 C.2     1  UNL1       -0.0034
      6 C         138.1701  141.6273  163.8834 C.3     1  UNL1        0.0300
      7 C         138.7357  143.7314  162.3349 C.3     1  UNL1        0.1281
      8 C         139.5872  143.5386  166.1169 C.2     1  UNL1        0.0231
      9 C         140.8222  142.8035  166.5465 C.2     1  UNL1        0.0564
     10 C         141.9322  142.3442  165.6482 C.2     1  UNL1        0.2496
     11 O         142.0020  142.5391  164.1626 O.2     1  UNL1       -0.2698
     12 N         142.9600  141.6556  166.4964 N.am    1  UNL1       -0.2804
     13 C         142.4852  141.6894  167.9189 C.ar    1  UNL1        0.0508
     14 C         143.0854  141.1659  169.1900 C.ar    1  UNL1        0.0170
     15 C         142.3642  141.3518  170.4921 C.ar    1  UNL1        0.0309
     16 C         141.0430  142.0613  170.5230 C.ar    1  UNL1        0.1402
     17 F         140.3218  142.2472  171.8251 F       1  UNL1       -0.2042
     18 C         140.4429  142.5848  169.2519 C.ar    1  UNL1        0.0310
     19 C         141.1640  142.3989  167.9499 C.ar    1  UNL1        0.0201
     20 H         143.7989  141.2523  166.1758 H       1  UNL1        0.1552
     21 N         138.1836  143.2224  161.0364 N.am    1  UNL1       -0.2968
     22 C         139.0844  142.5250  160.0605 C.2     1  UNL1        0.2372
     23 O         140.5372  142.3368  160.3830 O.2     1  UNL1       -0.2736
     24 H         137.2301  143.3459  160.8247 H       1  UNL1        0.1500
     25 C         138.5324  142.0160  158.7620 C.3     1  UNL1        0.1315
     26 C         138.7543  140.6493  158.1850 C.3     1  UNL1        0.0265
     27 C         138.0205  140.5728  156.8789 C.3     1  UNL1        0.0190
     28 C         137.3452  141.8923  156.6487 C.3     1  UNL1        0.0689
     29 N         137.6615  142.7841  157.8125 N.3     1  UNL1       -0.2913
     30 H         136.7988  143.0610  158.2810 H       1  UNL1        0.1236
@<TRIPOS>BOND
     1     1     2    1
     2     2     3    2
     3     3     4    1
     4     4     8    1
     5     8     9    2
     6     9    10    1
     7    10    11    2
     8    10    12   am
     9    12    13    1
    10    13    14   ar
    11    14    15   ar
    12    15    16   ar
    13    16    17    1
    14    16    18   ar
    15    18    19   ar
    16     4     5    2
    17     5     6    1
    18     5     7    1
    19     7    21    1
    20    21    22   am
    21    22    23    2
    22    25    22    1
    23    25    26    1
    24    26    27    1
    25    27    28    1
    26    28    29    1
    27     7     2    1
    28    29    25    1
    29    19     9    1
    30    19    13   ar
    31    12    20    1
    32    21    24    1
    33    29    30    1
@<TRIPOS>MOLECULE
*****
 30 33 0 0 0
SMALL
GASTEIGER

@<TRIPOS>ATOM
      1 C         137.3334  139.8789  160.2888 C.3     1  UNL1        0.0493
      2 C         138.1673  139.4753  161.4686 C.2     1  UNL1        0.0588
      3 N         137.9104  139.8481  162.8986 N.2     1  UNL1       -0.2525
      4 C         138.9887  139.2314  163.7392 C.2     1  UNL1        0.0748
      5 C         139.9121  138.4774  162.8288 C.2     1  UNL1       -0.0034
      6 C         141.1293  137.7078  163.2481 C.3     1  UNL1        0.0300
      7 C         139.4043  138.6282  161.4254 C.3     1  UNL1        0.1281
      8 C         139.1206  139.3481  165.2290 C.2     1  UNL1        0.0231
      9 C         139.6753  140.6022  165.8368 C.2     1  UNL1        0.0564
     10 C         140.1372  141.8161  165.0864 C.2     1  UNL1        0.2496
     11 O         140.1256  141.9890  163.5965 O.2     1  UNL1       -0.2698
     12 N         140.6128  142.8267  166.0876 N.am    1  UNL1       -0.2804
     13 C         140.4449  142.2374  167.4568 C.ar    1  UNL1        0.0508
     14 C         140.7447  142.7751  168.8246 C.ar    1  UNL1        0.0170
     15 C         140.4650  141.9380  170.0374 C.ar    1  UNL1        0.0309
     16 C         139.8856  140.5631  169.8824 C.ar    1  UNL1        0.1402
     17 F         139.6059  139.7259  171.0952 F       1  UNL1       -0.2042
     18 C         139.5858  140.0254  168.5145 C.ar    1  UNL1        0.0310
     19 C         139.8654  140.8626  167.3018 C.ar    1  UNL1        0.0201
     20 H         140.9722  143.7200  165.8822 H       1  UNL1        0.1552
     21 N         140.0248  138.0358  160.1949 N.am    1  UNL1       -0.2968
     22 C         141.0373  138.8199  159.4138 C.2     1  UNL1        0.2372
     23 O         141.4294  140.1962  159.8631 O.2     1  UNL1       -0.2736
     24 H         139.7675  137.1325  159.8999 H       1  UNL1        0.1500
     25 C         141.6578  138.2275  158.1833 C.3     1  UNL1        0.1315
     26 C         140.9330  137.4828  157.1015 C.3     1  UNL1        0.0265
     27 C         141.9392  137.0709  156.0682 C.3     1  UNL1        0.0190
     28 C         143.2858  137.5610  156.5113 C.3     1  UNL1        0.0689
     29 N         143.1119  138.2758  157.8184 N.3     1  UNL1       -0.2913
     30 H         143.4133  139.2458  157.7253 H       1  UNL1        0.1236
@<TRIPOS>BOND
     1     1     2    1
     2     2     3    2
     3     3     4    1
     4     4     8    1
     5     8     9    2
     6     9    10    1
     7    10    11    2
     8    10    12   am
     9    12    13    1
    10    13    14   ar
    11    14    15   ar
    12    15    16   ar
    13    16    17    1
    14    16    18   ar
    15    18    19   ar
    16     4     5    2
    17     5     6    1
    18     5     7    1
    19     7    21    1
    20    21    22   am
    21    22    23    2
    22    25    22    1
    23    25    26    1
    24    26    27    1
    25    27    28    1
    26    28    29    1
    27     7     2    1
    28    29    25    1
    29    19     9    1
    30    19    13   ar
    31    12    20    1
    32    21    24    1
    33    29    30    1
@<TRIPOS>MOLECULE
*****
 30 33 0 0 0
SMALL
GASTEIGER

@<TRIPOS>ATOM
      1 C         137.9025  137.9177  162.0456 C.3     1  UNL1        0.0493
      2 C         138.6820  139.0497  162.6463 C.2     1  UNL1        0.0588
      3 N         138.5325  139.5806  164.0412 N.2     1  UNL1       -0.2525
      4 C         139.5059  140.7086  164.2146 C.2     1  UNL1        0.0748
      5 C         140.2570  140.8748  162.9269 C.2     1  UNL1       -0.0034
      6 C         141.3291  141.8883  162.6560 C.3     1  UNL1        0.0300
      7 C         139.7477  139.8495  161.9576 C.3     1  UNL1        0.1281
      8 C         139.6951  141.5268  165.4576 C.2     1  UNL1        0.0231
      9 C         140.7622  141.1560  166.4444 C.2     1  UNL1        0.0564
     10 C         141.7112  140.0006  166.3242 C.2     1  UNL1        0.2496
     11 O         141.7597  139.0131  165.1961 O.2     1  UNL1       -0.2698
     12 N         142.6032  140.0060  167.5301 N.am    1  UNL1       -0.2804
     13 C         142.2055  141.1648  168.3956 C.ar    1  UNL1        0.0508
     14 C         142.7325  141.6646  169.7081 C.ar    1  UNL1        0.0170
     15 C         142.1215  142.8751  170.3495 C.ar    1  UNL1        0.0309
     16 C         140.9837  143.5858  169.6784 C.ar    1  UNL1        0.1402
     17 F         140.3728  144.7964  170.3199 F       1  UNL1       -0.2042
     18 C         140.4568  143.0860  168.3660 C.ar    1  UNL1        0.0310
     19 C         141.0677  141.8755  167.7246 C.ar    1  UNL1        0.0201
     20 H         143.3233  139.3621  167.7202 H       1  UNL1        0.1552
     21 N         140.2212  139.6578  160.5473 N.am    1  UNL1       -0.2968
     22 C         141.1513  138.5286  160.2154 C.2     1  UNL1        0.2372
     23 O         141.6079  137.5913  161.2938 O.2     1  UNL1       -0.2736
     24 H         139.9215  140.2729  159.8395 H       1  UNL1        0.1500
     25 C         141.6247  138.3369  158.8050 C.3     1  UNL1        0.1315
     26 C         140.7519  138.2049  157.5923 C.3     1  UNL1        0.0265
     27 C         141.6418  138.0299  156.3975 C.3     1  UNL1        0.0190
     28 C         143.0646  138.0537  156.8719 C.3     1  UNL1        0.0689
     29 N         143.0540  138.2434  158.3598 N.3     1  UNL1       -0.2913
     30 H         143.5491  139.1014  158.6029 H       1  UNL1        0.1236
@<TRIPOS>BOND
     1     1     2    1
     2     2     3    2
     3     3     4    1
     4     4     8    1
     5     8     9    2
     6     9    10    1
     7    10    11    2
     8    10    12   am
     9    12    13    1
    10    13    14   ar
    11    14    15   ar
    12    15    16   ar
    13    16    17    1
    14    16    18   ar
    15    18    19   ar
    16     4     5    2
    17     5     6    1
    18     5     7    1
    19     7    21    1
    20    21    22   am
    21    22    23    2
    22    25    22    1
    23    25    26    1
    24    26    27    1
    25    27    28    1
    26    28    29    1
    27     7     2    1
    28    29    25    1
    29    19     9    1
    30    19    13   ar
    31    12    20    1
    32    21    24    1
    33    29    30    1
@<TRIPOS>MOLECULE
*****
 30 33 0 0 0
SMALL
GASTEIGER

@<TRIPOS>ATOM
      1 C         141.2365  144.3474  160.0405 C.3     1  UNL1        0.0493
      2 C         142.1216  143.8315  161.1361 C.2     1  UNL1        0.0588
      3 N         141.8513  143.9308  162.6082 N.2     1  UNL1       -0.2525
      4 C         142.9950  143.2864  163.3339 C.2     1  UNL1        0.0748
      5 C         143.9721  142.7890  162.3103 C.2     1  UNL1       -0.0034
      6 C         145.2625  142.0792  162.5951 C.3     1  UNL1        0.0300
      7 C         143.4323  143.1259  160.9520 C.3     1  UNL1        0.1281
      8 C         143.1367  143.1614  164.8220 C.2     1  UNL1        0.0231
      9 C         142.7877  141.8713  165.5030 C.2     1  UNL1        0.0564
     10 C         142.2872  140.6270  164.8311 C.2     1  UNL1        0.2496
     11 O         142.0478  140.4545  163.3604 O.2     1  UNL1       -0.2698
     12 N         142.0681  139.5856  165.8882 N.am    1  UNL1       -0.2804
     13 C         142.4332  140.1862  167.2134 C.ar    1  UNL1        0.0508
     14 C         142.4181  139.6293  168.6060 C.ar    1  UNL1        0.0170
     15 C         142.8479  140.4850  169.7606 C.ar    1  UNL1        0.0309
     16 C         143.2926  141.8977  169.5225 C.ar    1  UNL1        0.1402
     17 F         143.7224  142.7534  170.6771 F       1  UNL1       -0.2042
     18 C         143.3077  142.4546  168.1298 C.ar    1  UNL1        0.0310
     19 C         142.8780  141.5988  166.9753 C.ar    1  UNL1        0.0201
     20 H         141.7419  138.6689  165.7386 H       1  UNL1        0.1552
     21 N         144.0881  142.8122  159.6399 N.am    1  UNL1       -0.2968
     22 C         144.0192  141.4221  159.0805 C.2     1  UNL1        0.2372
     23 O         143.2947  140.3457  159.8330 O.2     1  UNL1       -0.2736
     24 H         144.5637  143.5187  159.1459 H       1  UNL1        0.1500
     25 C         144.6750  141.1084  157.7684 C.3     1  UNL1        0.1315
     26 C         145.6701  141.9719  157.0514 C.3     1  UNL1        0.0265
     27 C         146.0610  141.2734  155.7828 C.3     1  UNL1        0.0190
     28 C         145.3074  139.9781  155.7159 C.3     1  UNL1        0.0689
     29 N         144.4509  139.8762  156.9430 N.3     1  UNL1       -0.2913
     30 H         144.7113  139.0484  157.4791 H       1  UNL1        0.1236
@<TRIPOS>BOND
     1     1     2    1
     2     2     3    2
     3     3     4    1
     4     4     8    1
     5     8     9    2
     6     9    10    1
     7    10    11    2
     8    10    12   am
     9    12    13    1
    10    13    14   ar
    11    14    15   ar
    12    15    16   ar
    13    16    17    1
    14    16    18   ar
    15    18    19   ar
    16     4     5    2
    17     5     6    1
    18     5     7    1
    19     7    21    1
    20    21    22   am
    21    22    23    2
    22    25    22    1
    23    25    26    1
    24    26    27    1
    25    27    28    1
    26    28    29    1
    27     7     2    1
    28    29    25    1
    29    19     9    1
    30    19    13   ar
    31    12    20    1
    32    21    24    1
    33    29    30    1
@<TRIPOS>MOLECULE
*****
 30 33 0 0 0
SMALL
GASTEIGER

@<TRIPOS>ATOM
      1 C         142.9374  143.3996  157.4368 C.3     1  UNL1        0.0493
      2 C         142.2282  143.6170  158.7405 C.2     1  UNL1        0.0588
      3 N         142.2563  142.6957  159.9238 N.2     1  UNL1       -0.2525
      4 C         141.4118  143.3032  161.0044 C.2     1  UNL1        0.0748
      5 C         140.8616  144.5999  160.4889 C.2     1  UNL1       -0.0034
      6 C         139.9645  145.5380  161.2406 C.3     1  UNL1        0.0300
      7 C         141.3662  144.7939  159.0897 C.3     1  UNL1        0.1281
      8 C         141.1613  142.7168  162.3622 C.2     1  UNL1        0.0231
      9 C         142.1530  142.9323  163.4668 C.2     1  UNL1        0.0564
     10 C         143.4330  143.7074  163.3637 C.2     1  UNL1        0.2496
     11 O         143.9462  144.4031  162.1378 O.2     1  UNL1       -0.2698
     12 N         144.1098  143.6646  164.7016 N.am    1  UNL1       -0.2804
     13 C         143.2481  142.8631  165.6317 C.ar    1  UNL1        0.0508
     14 C         143.4084  142.4870  167.0748 C.ar    1  UNL1        0.0170
     15 C         142.3593  141.6582  167.7548 C.ar    1  UNL1        0.0309
     16 C         141.1499  141.2056  166.9917 C.ar    1  UNL1        0.1402
     17 F         140.1008  140.3768  167.6718 F       1  UNL1       -0.2042
     18 C         140.9896  141.5817  165.5485 C.ar    1  UNL1        0.0310
     19 C         142.0387  142.4105  164.8685 C.ar    1  UNL1        0.0201
     20 H         144.9689  144.0883  164.9293 H       1  UNL1        0.1552
     21 N         141.0622  145.9600  158.1965 N.am    1  UNL1       -0.2968
     22 C         140.0411  145.8234  157.1062 C.2     1  UNL1        0.2372
     23 O         139.3240  144.5207  156.9091 O.2     1  UNL1       -0.2736
     24 H         141.5328  146.8150  158.3259 H       1  UNL1        0.1500
     25 C         139.7371  146.9895  156.2131 C.3     1  UNL1        0.1315
     26 C         140.2786  147.2063  154.8311 C.3     1  UNL1        0.0265
     27 C         139.7144  148.4943  154.3090 C.3     1  UNL1        0.0190
     28 C         138.8241  149.0735  155.3682 C.3     1  UNL1        0.0689
     29 N         138.8382  148.1435  156.5450 N.3     1  UNL1       -0.2913
     30 H         137.8940  147.8048  156.7297 H       1  UNL1        0.1236
@<TRIPOS>BOND
     1     1     2    1
     2     2     3    2
     3     3     4    1
     4     4     8    1
     5     8     9    2
     6     9    10    1
     7    10    11    2
     8    10    12   am
     9    12    13    1
    10    13    14   ar
    11    14    15   ar
    12    15    16   ar
    13    16    17    1
    14    16    18   ar
    15    18    19   ar
    16     4     5    2
    17     5     6    1
    18     5     7    1
    19     7    21    1
    20    21    22   am
    21    22    23    2
    22    25    22    1
    23    25    26    1
    24    26    27    1
    25    27    28    1
    26    28    29    1
    27     7     2    1
    28    29    25    1
    29    19     9    1
    30    19    13   ar
    31    12    20    1
    32    21    24    1
    33    29    30    1
