@<TRIPOS>MOLECULE
*****
 40 43 0 0 0
SMALL
GASTEIGER

@<TRIPOS>ATOM
      1 C         139.7145  140.6195  158.3542 C.2     1  UNL1       -0.0066
      2 C         140.6632  139.6165  157.7678 C.2     1  UNL1       -0.0414
      3 C         141.2905  138.5747  158.6460 C.3     1  UNL1        0.0394
      4 C         142.2392  137.5717  158.0596 C.3     1  UNL1        0.0767
      5 N         142.5606  137.6104  156.5950 N.3     1  UNL1       -0.2683
      6 C         141.9333  138.6521  155.7167 C.3     1  UNL1        0.0767
      7 C         140.9846  139.6552  156.3032 C.3     1  UNL1        0.0394
      8 C         138.7503  140.5034  162.7482 C.ar    1  UNL1        0.0536
      9 C         137.7172  140.0896  161.7424 C.ar    1  UNL1        0.0045
     10 C         138.0387  140.1283  160.2778 C.ar    1  UNL1        0.0001
     11 C         139.3931  140.5808  159.8189 C.ar    1  UNL1       -0.0006
     12 C         140.4261  140.9946  160.8246 C.ar    1  UNL1        0.0001
     13 C         140.1047  140.9559  162.2893 C.ar    1  UNL1        0.0045
     14 N         138.5872  139.1867  164.9819 N.am    1  UNL1       -0.2761
     15 C         138.4289  140.4647  164.2128 C.2     1  UNL1        0.2490
     16 O         137.9491  141.7040  164.9084 O.2     1  UNL1       -0.2699
     17 C         137.4708  138.0076  167.0101 C.3     1  UNL1        0.0233
     18 C         138.2658  139.1480  166.4466 C.3     1  UNL1        0.0938
     19 C         139.0670  137.9473  164.2863 C.3     1  UNL1        0.0938
     20 C         140.4719  137.4655  164.4964 C.3     1  UNL1        0.0233
     21 C         139.0873  141.6612  157.4760 C.ar    1  UNL1        0.0130
     22 C         137.8173  141.3550  156.7388 C.ar    1  UNL1        0.0012
     23 C         137.1901  142.3968  155.8605 C.ar    1  UNL1        0.0001
     24 C         137.8328  143.7448  155.7195 C.ar    1  UNL1        0.0013
     25 C         139.1027  144.0510  156.4567 C.ar    1  UNL1        0.0148
     26 C         139.7300  143.0093  157.3349 C.ar    1  UNL1        0.0531
     27 N         140.9999  143.3155  158.0721 N.am    1  UNL1       -0.2499
     28 C         140.9533  144.0852  159.3587 C.2     1  UNL1        0.4055
     29 O         139.6367  144.5487  159.9082 O.2     1  UNL1       -0.2261
     30 H         141.8640  143.0113  157.7116 H       1  UNL1        0.1582
     31 O         142.2232  144.3915  160.0959 O.3     1  UNL1       -0.4304
     32 C         142.2529  144.3345  161.5946 C.3     1  UNL1        0.2574
     33 C         143.5093  136.6073  156.0086 C.3     1  UNL1        0.0992
     34 C         143.1551  135.1498  156.0101 C.ar    1  UNL1       -0.0060
     35 C         142.2996  134.5847  154.9152 C.ar    1  UNL1       -0.0006
     36 C         141.9453  133.1271  154.9168 C.ar    1  UNL1        0.0294
     37 C         142.4466  132.2346  156.0133 C.ar    1  UNL1        0.1401
     38 F         142.0923  130.7771  156.0149 F       1  UNL1       -0.2042
     39 C         143.3020  132.7997  157.1082 C.ar    1  UNL1        0.0294
     40 C         143.6563  134.2574  157.1066 C.ar    1  UNL1       -0.0006
@<TRIPOS>BOND
     1    17    18    1
     2    18    14    1
     3    14    19    1
     4    19    20    1
     5    14    15   am
     6    15    16    2
     7    15     8    1
     8     8     9   ar
     9     9    10   ar
    10    10    11   ar
    11    11     1    1
    12     1     2    2
    13     2     3    1
    14     3     4    1
    15     4     5    1
    16     5    33    1
    17    33    34    1
    18    34    35   ar
    19    35    36   ar
    20    36    37   ar
    21    37    38    1
    22    37    39   ar
    23    39    40   ar
    24     5     6    1
    25     6     7    1
    26     1    21    1
    27    21    22   ar
    28    22    23   ar
    29    23    24   ar
    30    24    25   ar
    31    25    26   ar
    32    26    27    1
    33    27    28   am
    34    28    29    2
    35    28    31    1
    36    31    32    1
    37    11    12   ar
    38    12    13   ar
    39    13     8   ar
    40     7     2    1
    41    26    21   ar
    42    40    34   ar
    43    27    30    1
@<TRIPOS>MOLECULE
*****
 40 43 0 0 0
SMALL
GASTEIGER

@<TRIPOS>ATOM
      1 C         141.7528  140.6600  159.7296 C.2     1  UNL1       -0.0066
      2 C         142.0306  140.3890  161.1785 C.2     1  UNL1       -0.0414
      3 C         142.2310  138.9802  161.6531 C.3     1  UNL1        0.0394
      4 C         142.5088  138.7092  163.1020 C.3     1  UNL1        0.0767
      5 N         142.5862  139.8470  164.0764 N.3     1  UNL1       -0.2683
      6 C         142.3858  141.2558  163.6018 C.3     1  UNL1        0.0767
      7 C         142.1080  141.5268  162.1529 C.3     1  UNL1        0.0394
      8 C         141.5206  137.2466  156.8064 C.ar    1  UNL1        0.0536
      9 C         142.8207  137.9633  157.0208 C.ar    1  UNL1        0.0045
     10 C         142.8981  139.1011  157.9952 C.ar    1  UNL1        0.0001
     11 C         141.6754  139.5222  158.7552 C.ar    1  UNL1       -0.0006
     12 C         140.3753  138.8054  158.5408 C.ar    1  UNL1        0.0001
     13 C         140.2979  137.6676  157.5664 C.ar    1  UNL1        0.0045
     14 N         142.3062  134.8971  156.0238 N.am    1  UNL1       -0.2761
     15 C         141.4432  136.1088  155.8320 C.2     1  UNL1        0.2490
     16 O         140.5027  136.1827  154.6659 O.2     1  UNL1       -0.2699
     17 C         141.1756  132.7036  155.2113 C.3     1  UNL1        0.0233
     18 C         142.2288  133.7593  155.0494 C.3     1  UNL1        0.0938
     19 C         143.2468  134.8231  157.1900 C.3     1  UNL1        0.0938
     20 C         143.8947  133.5189  157.5495 C.3     1  UNL1        0.0233
     21 C         141.5524  142.0687  159.2551 C.ar    1  UNL1        0.0130
     22 C         142.7037  142.8358  158.6754 C.ar    1  UNL1        0.0012
     23 C         142.5033  144.2446  158.2009 C.ar    1  UNL1        0.0001
     24 C         141.1515  144.8863  158.3060 C.ar    1  UNL1        0.0013
     25 C         140.0002  144.1192  158.8857 C.ar    1  UNL1        0.0148
     26 C         140.2006  142.7104  159.3602 C.ar    1  UNL1        0.0531
     27 N         139.0493  141.9433  159.9399 N.am    1  UNL1       -0.2499
     28 C         138.5328  142.2844  161.3062 C.2     1  UNL1        0.4055
     29 O         139.1676  143.3927  162.0929 O.2     1  UNL1       -0.2261
     30 H         138.6326  141.2160  159.4236 H       1  UNL1        0.1582
     31 O         137.3814  141.5173  161.8858 O.3     1  UNL1       -0.4304
     32 C         137.4493  141.0160  163.2980 C.3     1  UNL1        0.2574
     33 C         142.8640  139.5760  165.5253 C.3     1  UNL1        0.0992
     34 C         141.7672  139.7181  166.5386 C.ar    1  UNL1       -0.0060
     35 C         142.1037  139.9885  167.9752 C.ar    1  UNL1       -0.0006
     36 C         141.0070  140.1307  168.9885 C.ar    1  UNL1        0.0294
     37 C         139.5736  140.0024  168.5653 C.ar    1  UNL1        0.1401
     38 F         138.4768  140.1446  169.5786 F       1  UNL1       -0.2042
     39 C         139.2371  139.7321  167.1287 C.ar    1  UNL1        0.0294
     40 C         140.3339  139.5899  166.1154 C.ar    1  UNL1       -0.0006
@<TRIPOS>BOND
     1    17    18    1
     2    18    14    1
     3    14    19    1
     4    19    20    1
     5    14    15   am
     6    15    16    2
     7    15     8    1
     8     8     9   ar
     9     9    10   ar
    10    10    11   ar
    11    11     1    1
    12     1     2    2
    13     2     3    1
    14     3     4    1
    15     4     5    1
    16     5    33    1
    17    33    34    1
    18    34    35   ar
    19    35    36   ar
    20    36    37   ar
    21    37    38    1
    22    37    39   ar
    23    39    40   ar
    24     5     6    1
    25     6     7    1
    26     1    21    1
    27    21    22   ar
    28    22    23   ar
    29    23    24   ar
    30    24    25   ar
    31    25    26   ar
    32    26    27    1
    33    27    28   am
    34    28    29    2
    35    28    31    1
    36    31    32    1
    37    11    12   ar
    38    12    13   ar
    39    13     8   ar
    40     7     2    1
    41    26    21   ar
    42    40    34   ar
    43    27    30    1
@<TRIPOS>MOLECULE
*****
 40 43 0 0 0
SMALL
GASTEIGER

@<TRIPOS>ATOM
      1 C         139.0984  140.8738  157.6206 C.2     1  UNL1       -0.0066
      2 C         139.7166  139.7405  156.8570 C.2     1  UNL1       -0.0414
      3 C         140.1285  138.4891  157.5743 C.3     1  UNL1        0.0394
      4 C         140.7467  137.3558  156.8107 C.3     1  UNL1        0.0767
      5 N         140.9531  137.4737  155.3296 N.3     1  UNL1       -0.2683
      6 C         140.5413  138.7250  154.6123 C.3     1  UNL1        0.0767
      7 C         139.9231  139.8584  155.3759 C.3     1  UNL1        0.0394
      8 C         138.4791  140.5201  162.0638 C.ar    1  UNL1        0.0536
      9 C         139.7163  141.1782  161.5290 C.ar    1  UNL1        0.0045
     10 C         139.9228  141.2962  160.0480 C.ar    1  UNL1        0.0001
     11 C         138.8920  140.7559  159.1017 C.ar    1  UNL1       -0.0006
     12 C         137.6547  140.0978  159.6364 C.ar    1  UNL1        0.0001
     13 C         137.4483  139.9798  161.1175 C.ar    1  UNL1        0.0045
     14 N         138.5415  139.0995  164.2382 N.am    1  UNL1       -0.2761
     15 C         138.2727  140.4022  163.5448 C.2     1  UNL1        0.2490
     16 O         137.7974  141.5869  164.3325 O.2     1  UNL1       -0.2699
     17 C         139.3831  139.4884  166.6652 C.3     1  UNL1        0.0233
     18 C         138.3351  138.9816  165.7192 C.3     1  UNL1        0.0938
     19 C         139.0168  137.9147  163.4505 C.3     1  UNL1        0.0938
     20 C         140.4506  137.4826  163.5374 C.3     1  UNL1        0.0233
     21 C         138.6866  142.1251  156.9033 C.ar    1  UNL1        0.0130
     22 C         139.6622  143.2532  156.7426 C.ar    1  UNL1        0.0012
     23 C         139.2503  144.5045  156.0252 C.ar    1  UNL1        0.0001
     24 C         137.8630  144.6277  155.4685 C.ar    1  UNL1        0.0013
     25 C         136.8874  143.4997  155.6291 C.ar    1  UNL1        0.0148
     26 C         137.2992  142.2484  156.3465 C.ar    1  UNL1        0.0531
     27 N         136.3236  141.1204  156.5071 N.am    1  UNL1       -0.2499
     28 C         136.0135  140.2256  155.3439 C.2     1  UNL1        0.4055
     29 O         136.6789  140.4589  154.0199 O.2     1  UNL1       -0.2261
     30 H         135.8869  140.9673  157.3760 H       1  UNL1        0.1582
     31 O         135.0379  139.0976  155.5045 O.3     1  UNL1       -0.4304
     32 C         133.6689  139.3630  156.0573 C.3     1  UNL1        0.2574
     33 C         141.5714  136.3402  154.5660 C.3     1  UNL1        0.0992
     34 C         142.1073  135.1462  155.2988 C.ar    1  UNL1       -0.0060
     35 C         141.4234  133.8175  155.1691 C.ar    1  UNL1       -0.0006
     36 C         141.9592  132.6235  155.9020 C.ar    1  UNL1        0.0294
     37 C         143.1791  132.7581  156.7646 C.ar    1  UNL1        0.1401
     38 F         143.7150  131.5641  157.4974 F       1  UNL1       -0.2042
     39 C         143.8630  134.0868  156.8942 C.ar    1  UNL1        0.0294
     40 C         143.3270  135.2809  156.1613 C.ar    1  UNL1       -0.0006
@<TRIPOS>BOND
     1    17    18    1
     2    18    14    1
     3    14    19    1
     4    19    20    1
     5    14    15   am
     6    15    16    2
     7    15     8    1
     8     8     9   ar
     9     9    10   ar
    10    10    11   ar
    11    11     1    1
    12     1     2    2
    13     2     3    1
    14     3     4    1
    15     4     5    1
    16     5    33    1
    17    33    34    1
    18    34    35   ar
    19    35    36   ar
    20    36    37   ar
    21    37    38    1
    22    37    39   ar
    23    39    40   ar
    24     5     6    1
    25     6     7    1
    26     1    21    1
    27    21    22   ar
    28    22    23   ar
    29    23    24   ar
    30    24    25   ar
    31    25    26   ar
    32    26    27    1
    33    27    28   am
    34    28    29    2
    35    28    31    1
    36    31    32    1
    37    11    12   ar
    38    12    13   ar
    39    13     8   ar
    40     7     2    1
    41    26    21   ar
    42    40    34   ar
    43    27    30    1
@<TRIPOS>MOLECULE
*****
 40 43 0 0 0
SMALL
GASTEIGER

@<TRIPOS>ATOM
      1 C         141.5992  141.7610  162.1093 C.2     1  UNL1       -0.0066
      2 C         142.0495  141.1539  160.8137 C.2     1  UNL1       -0.0414
      3 C         142.8379  139.8778  160.8174 C.3     1  UNL1        0.0394
      4 C         143.2881  139.2706  159.5218 C.3     1  UNL1        0.0767
      5 N         142.9501  139.9396  158.2225 N.3     1  UNL1       -0.2683
      6 C         142.1617  141.2157  158.2187 C.3     1  UNL1        0.0767
      7 C         141.7114  141.8229  159.5144 C.3     1  UNL1        0.0394
      8 C         142.6134  139.7542  166.0072 C.ar    1  UNL1        0.0536
      9 C         141.4801  139.2386  165.1708 C.ar    1  UNL1        0.0045
     10 C         141.1420  139.9075  163.8715 C.ar    1  UNL1        0.0001
     11 C         141.9373  141.0921  163.4086 C.ar    1  UNL1       -0.0006
     12 C         143.0706  141.6077  164.2450 C.ar    1  UNL1        0.0001
     13 C         143.4087  140.9388  165.5443 C.ar    1  UNL1        0.0045
     14 N         142.2622  139.5085  168.5697 N.am    1  UNL1       -0.2761
     15 C         142.9515  139.0852  167.3065 C.2     1  UNL1        0.2490
     16 O         143.9789  137.9930  167.3427 O.2     1  UNL1       -0.2699
     17 C         143.0680  139.6591  171.0351 C.3     1  UNL1        0.0233
     18 C         142.6003  138.8396  169.8690 C.3     1  UNL1        0.0938
     19 C         141.2347  140.6009  168.5335 C.3     1  UNL1        0.0938
     20 C         139.7746  140.2577  168.5434 C.3     1  UNL1        0.0233
     21 C         140.8108  143.0371  162.1055 C.ar    1  UNL1        0.0130
     22 C         141.5119  144.3514  161.9288 C.ar    1  UNL1        0.0012
     23 C         140.7235  145.6275  161.9251 C.ar    1  UNL1        0.0001
     24 C         139.2340  145.5893  162.0981 C.ar    1  UNL1        0.0013
     25 C         138.5329  144.2751  162.2749 C.ar    1  UNL1        0.0148
     26 C         139.3213  142.9990  162.2786 C.ar    1  UNL1        0.0531
     27 N         138.6202  141.6848  162.4553 N.am    1  UNL1       -0.2499
     28 C         138.1190  140.9350  161.2568 C.2     1  UNL1        0.4055
     29 O         138.3188  141.4994  159.8814 O.2     1  UNL1       -0.2261
     30 H         138.4890  141.3144  163.3580 H       1  UNL1        0.1582
     31 O         137.4178  139.6207  161.4336 O.3     1  UNL1       -0.4304
     32 C         138.2114  138.3793  161.7151 C.3     1  UNL1        0.2574
     33 C         143.4004  139.3324  156.9268 C.3     1  UNL1        0.0992
     34 C         142.8228  138.0256  156.4702 C.ar    1  UNL1       -0.0060
     35 C         143.7257  136.9494  155.9443 C.ar    1  UNL1       -0.0006
     36 C         143.1481  135.6426  155.4876 C.ar    1  UNL1        0.0294
     37 C         141.6675  135.4119  155.5569 C.ar    1  UNL1        0.1401
     38 F         141.0899  134.1051  155.1003 F       1  UNL1       -0.2042
     39 C         140.7646  136.4881  156.0828 C.ar    1  UNL1        0.0294
     40 C         141.3423  137.7949  156.5395 C.ar    1  UNL1       -0.0006
@<TRIPOS>BOND
     1    17    18    1
     2    18    14    1
     3    14    19    1
     4    19    20    1
     5    14    15   am
     6    15    16    2
     7    15     8    1
     8     8     9   ar
     9     9    10   ar
    10    10    11   ar
    11    11     1    1
    12     1     2    2
    13     2     3    1
    14     3     4    1
    15     4     5    1
    16     5    33    1
    17    33    34    1
    18    34    35   ar
    19    35    36   ar
    20    36    37   ar
    21    37    38    1
    22    37    39   ar
    23    39    40   ar
    24     5     6    1
    25     6     7    1
    26     1    21    1
    27    21    22   ar
    28    22    23   ar
    29    23    24   ar
    30    24    25   ar
    31    25    26   ar
    32    26    27    1
    33    27    28   am
    34    28    29    2
    35    28    31    1
    36    31    32    1
    37    11    12   ar
    38    12    13   ar
    39    13     8   ar
    40     7     2    1
    41    26    21   ar
    42    40    34   ar
    43    27    30    1
@<TRIPOS>MOLECULE
*****
 40 43 0 0 0
SMALL
GASTEIGER

@<TRIPOS>ATOM
      1 C         141.2476  140.8850  162.3292 C.2     1  UNL1       -0.0066
      2 C         142.1923  141.3266  161.2510 C.2     1  UNL1       -0.0414
      3 C         143.4632  142.0370  161.6120 C.3     1  UNL1        0.0394
      4 C         144.4078  142.4785  160.5337 C.3     1  UNL1        0.0767
      5 N         144.0816  142.2097  159.0945 N.3     1  UNL1       -0.2683
      6 C         142.8108  141.4993  158.7335 C.3     1  UNL1        0.0767
      7 C         141.8661  141.0577  159.8118 C.3     1  UNL1        0.0394
      8 C         142.2261  141.6915  166.6469 C.ar    1  UNL1        0.0536
      9 C         141.4030  142.6743  165.8682 C.ar    1  UNL1        0.0045
     10 C         141.0768  142.4055  164.4290 C.ar    1  UNL1        0.0001
     11 C         141.5738  141.1538  163.7685 C.ar    1  UNL1       -0.0006
     12 C         142.3970  140.1710  164.5471 C.ar    1  UNL1        0.0001
     13 C         142.7232  140.4399  165.9864 C.ar    1  UNL1        0.0045
     14 N         141.6615  141.4279  169.1691 N.am    1  UNL1       -0.2761
     15 C         142.5523  141.9603  168.0861 C.2     1  UNL1        0.2490
     16 O         143.7693  142.7615  168.4423 O.2     1  UNL1       -0.2699
     17 C         142.5689  140.6085  171.4615 C.3     1  UNL1        0.0233
     18 C         141.9877  141.6967  170.6083 C.3     1  UNL1        0.0938
     19 C         140.4444  140.6267  168.8129 C.3     1  UNL1        0.0938
     20 C         139.2324  140.6713  169.6955 C.3     1  UNL1        0.0233
     21 C         139.9768  140.1747  161.9683 C.ar    1  UNL1        0.0130
     22 C         139.9042  138.6787  162.0512 C.ar    1  UNL1        0.0012
     23 C         138.6333  137.9684  161.6901 C.ar    1  UNL1        0.0001
     24 C         137.4351  138.7540  161.2463 C.ar    1  UNL1        0.0013
     25 C         137.5077  140.2499  161.1634 C.ar    1  UNL1        0.0148
     26 C         138.7785  140.9603  161.5244 C.ar    1  UNL1        0.0531
     27 N         138.8511  142.4562  161.4415 N.am    1  UNL1       -0.2499
     28 C         138.1398  143.2991  162.4580 C.2     1  UNL1        0.4055
     29 O         137.3558  142.6461  163.5576 O.2     1  UNL1       -0.2261
     30 H         139.3656  142.8848  160.7198 H       1  UNL1        0.1582
     31 O         138.2124  144.7950  162.3751 O.3     1  UNL1       -0.4304
     32 C         139.5457  145.4824  162.3750 C.3     1  UNL1        0.2574
     33 C         145.0264  142.6513  158.0163 C.3     1  UNL1        0.0992
     34 C         144.9510  142.0307  156.6527 C.ar    1  UNL1       -0.0060
     35 C         144.2952  142.7728  155.5262 C.ar    1  UNL1       -0.0006
     36 C         144.2199  142.1523  154.1627 C.ar    1  UNL1        0.0294
     37 C         144.8004  140.7896  153.9257 C.ar    1  UNL1        0.1401
     38 F         144.7250  140.1691  152.5621 F       1  UNL1       -0.2042
     39 C         145.4562  140.0475  155.0522 C.ar    1  UNL1        0.0294
     40 C         145.5315  140.6681  156.4158 C.ar    1  UNL1       -0.0006
@<TRIPOS>BOND
     1    17    18    1
     2    18    14    1
     3    14    19    1
     4    19    20    1
     5    14    15   am
     6    15    16    2
     7    15     8    1
     8     8     9   ar
     9     9    10   ar
    10    10    11   ar
    11    11     1    1
    12     1     2    2
    13     2     3    1
    14     3     4    1
    15     4     5    1
    16     5    33    1
    17    33    34    1
    18    34    35   ar
    19    35    36   ar
    20    36    37   ar
    21    37    38    1
    22    37    39   ar
    23    39    40   ar
    24     5     6    1
    25     6     7    1
    26     1    21    1
    27    21    22   ar
    28    22    23   ar
    29    23    24   ar
    30    24    25   ar
    31    25    26   ar
    32    26    27    1
    33    27    28   am
    34    28    29    2
    35    28    31    1
    36    31    32    1
    37    11    12   ar
    38    12    13   ar
    39    13     8   ar
    40     7     2    1
    41    26    21   ar
    42    40    34   ar
    43    27    30    1
@<TRIPOS>MOLECULE
*****
 40 43 0 0 0
SMALL
GASTEIGER

@<TRIPOS>ATOM
      1 C         141.5386  141.0327  161.7222 C.2     1  UNL1       -0.0066
      2 C         141.9759  141.4029  163.1084 C.2     1  UNL1       -0.0414
      3 C         143.3016  142.0711  163.3233 C.3     1  UNL1        0.0394
      4 C         143.7389  142.4413  164.7095 C.3     1  UNL1        0.0767
      5 N         142.8506  142.1434  165.8809 N.3     1  UNL1       -0.2683
      6 C         141.5249  141.4753  165.6660 C.3     1  UNL1        0.0767
      7 C         141.0876  141.1050  164.2798 C.3     1  UNL1        0.0394
      8 C         144.2036  141.9264  158.2081 C.ar    1  UNL1        0.0536
      9 C         144.0857  140.5221  158.7220 C.ar    1  UNL1        0.0045
     10 C         143.1974  140.2242  159.8933 C.ar    1  UNL1        0.0001
     11 C         142.4269  141.3306  160.5508 C.ar    1  UNL1       -0.0006
     12 C         142.5448  142.7348  160.0369 C.ar    1  UNL1        0.0001
     13 C         143.4331  143.0327  158.8655 C.ar    1  UNL1        0.0045
     14 N         144.5309  142.2043  155.6457 N.am    1  UNL1       -0.2761
     15 C         145.0919  142.2243  157.0367 C.2     1  UNL1        0.2490
     16 O         146.5413  142.5421  157.2563 O.2     1  UNL1       -0.2699
     17 C         146.2848  141.4223  153.8958 C.3     1  UNL1        0.0233
     18 C         145.4192  142.5022  154.4744 C.3     1  UNL1        0.0938
     19 C         143.0814  141.8865  155.4261 C.3     1  UNL1        0.0938
     20 C         142.0807  142.9968  155.3014 C.3     1  UNL1        0.0233
     21 C         140.2129  140.3645  161.5073 C.ar    1  UNL1        0.0130
     22 C         140.1049  138.8704  161.5843 C.ar    1  UNL1        0.0012
     23 C         138.7791  138.2023  161.3695 C.ar    1  UNL1        0.0001
     24 C         137.5616  139.0283  161.0776 C.ar    1  UNL1        0.0013
     25 C         137.6696  140.5224  161.0007 C.ar    1  UNL1        0.0148
     26 C         138.9953  141.1905  161.2155 C.ar    1  UNL1        0.0531
     27 N         139.1033  142.6846  161.1385 N.am    1  UNL1       -0.2499
     28 C         138.6145  143.5315  162.2760 C.2     1  UNL1        0.4055
     29 O         138.0177  142.8843  163.4905 O.2     1  UNL1       -0.2261
     30 H         139.4951  143.1094  160.3415 H       1  UNL1        0.1582
     31 O         138.7226  145.0257  162.1990 O.3     1  UNL1       -0.4304
     32 C         140.0724  145.6793  162.1673 C.3     1  UNL1        0.2574
     33 C         143.2880  142.5137  167.2671 C.3     1  UNL1        0.0992
     34 C         142.5623  141.9574  168.4562 C.ar    1  UNL1       -0.0060
     35 C         141.5685  142.8059  169.1928 C.ar    1  UNL1       -0.0006
     36 C         140.8429  142.2496  170.3818 C.ar    1  UNL1        0.0294
     37 C         141.1110  140.8448  170.8344 C.ar    1  UNL1        0.1401
     38 F         140.3853  140.2886  172.0235 F       1  UNL1       -0.2042
     39 C         142.1048  139.9964  170.0979 C.ar    1  UNL1        0.0294
     40 C         142.8305  140.5527  168.9088 C.ar    1  UNL1       -0.0006
@<TRIPOS>BOND
     1    17    18    1
     2    18    14    1
     3    14    19    1
     4    19    20    1
     5    14    15   am
     6    15    16    2
     7    15     8    1
     8     8     9   ar
     9     9    10   ar
    10    10    11   ar
    11    11     1    1
    12     1     2    2
    13     2     3    1
    14     3     4    1
    15     4     5    1
    16     5    33    1
    17    33    34    1
    18    34    35   ar
    19    35    36   ar
    20    36    37   ar
    21    37    38    1
    22    37    39   ar
    23    39    40   ar
    24     5     6    1
    25     6     7    1
    26     1    21    1
    27    21    22   ar
    28    22    23   ar
    29    23    24   ar
    30    24    25   ar
    31    25    26   ar
    32    26    27    1
    33    27    28   am
    34    28    29    2
    35    28    31    1
    36    31    32    1
    37    11    12   ar
    38    12    13   ar
    39    13     8   ar
    40     7     2    1
    41    26    21   ar
    42    40    34   ar
    43    27    30    1
@<TRIPOS>MOLECULE
*****
 40 43 0 0 0
SMALL
GASTEIGER

@<TRIPOS>ATOM
      1 C         141.2099  140.0873  159.1700 C.2     1  UNL1       -0.0066
      2 C         140.7846  139.7778  160.5747 C.2     1  UNL1       -0.0414
      3 C         140.5951  138.3531  161.0044 C.3     1  UNL1        0.0394
      4 C         140.1698  138.0436  162.4091 C.3     1  UNL1        0.0767
      5 N         139.9338  139.1588  163.3842 N.3     1  UNL1       -0.2683
      6 C         140.1233  140.5834  162.9546 C.3     1  UNL1        0.0767
      7 C         140.5486  140.8929  161.5498 C.3     1  UNL1        0.0394
      8 C         141.9177  136.7419  156.2447 C.ar    1  UNL1        0.0536
      9 C         143.0826  137.4532  156.8668 C.ar    1  UNL1        0.0045
     10 C         142.8467  138.5683  157.8419 C.ar    1  UNL1        0.0001
     11 C         141.4459  138.9721  158.1949 C.ar    1  UNL1       -0.0006
     12 C         140.2810  138.2608  157.5728 C.ar    1  UNL1        0.0001
     13 C         140.5169  137.1457  156.5977 C.ar    1  UNL1        0.0045
     14 N         142.7083  134.3175  155.7473 N.am    1  UNL1       -0.2761
     15 C         142.1537  135.6268  155.2696 C.2     1  UNL1        0.2490
     16 O         141.8350  135.8209  153.8168 O.2     1  UNL1       -0.2699
     17 C         141.8278  132.2638  154.4217 C.3     1  UNL1        0.0233
     18 C         142.9443  133.2024  154.7722 C.3     1  UNL1        0.0938
     19 C         143.0270  134.1234  157.2002 C.3     1  UNL1        0.0938
     20 C         144.2552  133.3625  157.6034 C.3     1  UNL1        0.0233
     21 C         141.3993  141.5118  158.7404 C.ar    1  UNL1        0.0130
     22 C         140.3063  142.2234  157.9994 C.ar    1  UNL1        0.0012
     23 C         140.4958  143.6481  157.5698 C.ar    1  UNL1        0.0001
     24 C         141.7782  144.3611  157.8812 C.ar    1  UNL1        0.0013
     25 C         142.8712  143.6496  158.6222 C.ar    1  UNL1        0.0148
     26 C         142.6818  142.2250  159.0518 C.ar    1  UNL1        0.0531
     27 N         143.7748  141.5134  159.7928 N.am    1  UNL1       -0.2499
     28 C         144.0939  141.8959  161.2076 C.2     1  UNL1        0.4055
     29 O         143.3200  142.9900  161.8815 O.2     1  UNL1       -0.2261
     30 H         144.2827  140.7953  159.3505 H       1  UNL1        0.1582
     31 O         145.1869  141.1843  161.9486 O.3     1  UNL1       -0.4304
     32 C         145.6357  141.6879  163.2884 C.3     1  UNL1        0.2574
     33 C         139.5085  138.8492  164.7890 C.3     1  UNL1        0.0992
     34 C         140.4063  139.1985  165.9387 C.ar    1  UNL1       -0.0060
     35 C         141.8720  138.8874  165.8671 C.ar    1  UNL1       -0.0006
     36 C         142.7698  139.2367  167.0168 C.ar    1  UNL1        0.0294
     37 C         142.2020  139.8971  168.2382 C.ar    1  UNL1        0.1401
     38 F         143.0999  140.2463  169.3878 F       1  UNL1       -0.2042
     39 C         140.7364  140.2081  168.3097 C.ar    1  UNL1        0.0294
     40 C         139.8385  139.8588  167.1599 C.ar    1  UNL1       -0.0006
@<TRIPOS>BOND
     1    17    18    1
     2    18    14    1
     3    14    19    1
     4    19    20    1
     5    14    15   am
     6    15    16    2
     7    15     8    1
     8     8     9   ar
     9     9    10   ar
    10    10    11   ar
    11    11     1    1
    12     1     2    2
    13     2     3    1
    14     3     4    1
    15     4     5    1
    16     5    33    1
    17    33    34    1
    18    34    35   ar
    19    35    36   ar
    20    36    37   ar
    21    37    38    1
    22    37    39   ar
    23    39    40   ar
    24     5     6    1
    25     6     7    1
    26     1    21    1
    27    21    22   ar
    28    22    23   ar
    29    23    24   ar
    30    24    25   ar
    31    25    26   ar
    32    26    27    1
    33    27    28   am
    34    28    29    2
    35    28    31    1
    36    31    32    1
    37    11    12   ar
    38    12    13   ar
    39    13     8   ar
    40     7     2    1
    41    26    21   ar
    42    40    34   ar
    43    27    30    1
@<TRIPOS>MOLECULE
*****
 40 43 0 0 0
SMALL
GASTEIGER

@<TRIPOS>ATOM
      1 C         142.7189  138.0807  157.2270 C.2     1  UNL1       -0.0066
      2 C         143.6305  139.1838  156.7773 C.2     1  UNL1       -0.0414
      3 C         143.8047  140.4066  157.6284 C.3     1  UNL1        0.0394
      4 C         144.7163  141.5097  157.1787 C.3     1  UNL1        0.0767
      5 N         145.4536  141.3900  155.8780 N.3     1  UNL1       -0.2683
      6 C         145.2794  140.1672  155.0269 C.3     1  UNL1        0.0767
      7 C         144.3678  139.0640  155.4766 C.3     1  UNL1        0.0394
      8 C         140.5069  138.4398  161.1293 C.ar    1  UNL1        0.0536
      9 C         141.9318  137.9716  161.1152 C.ar    1  UNL1        0.0045
     10 C         142.6692  137.8519  159.8145 C.ar    1  UNL1        0.0001
     11 C         141.9816  138.2004  158.5277 C.ar    1  UNL1       -0.0006
     12 C         140.5566  138.6686  158.5418 C.ar    1  UNL1        0.0001
     13 C         139.8193  138.7883  159.8425 C.ar    1  UNL1        0.0045
     14 N         139.8271  139.8397  163.2097 N.am    1  UNL1       -0.2761
     15 C         139.7695  138.5596  162.4300 C.2     1  UNL1        0.2490
     16 O         138.9746  137.3992  162.9511 O.2     1  UNL1       -0.2699
     17 C         138.3073  141.2018  164.8175 C.3     1  UNL1        0.0233
     18 C         139.0897  139.9594  164.5105 C.3     1  UNL1        0.0938
     19 C         140.6220  141.0001  162.6887 C.3     1  UNL1        0.0938
     20 C         141.8805  141.4214  163.3878 C.3     1  UNL1        0.0233
     21 C         142.5447  136.8579  156.3759 C.ar    1  UNL1        0.0130
     22 C         143.3647  135.6317  156.6480 C.ar    1  UNL1        0.0012
     23 C         143.1905  134.4089  155.7968 C.ar    1  UNL1        0.0001
     24 C         142.1963  134.4123  154.6737 C.ar    1  UNL1        0.0013
     25 C         141.3763  135.6385  154.4016 C.ar    1  UNL1        0.0148
     26 C         141.5505  136.8613  155.2527 C.ar    1  UNL1        0.0531
     27 N         140.7305  138.0875  154.9806 N.am    1  UNL1       -0.2499
     28 C         139.2604  138.0879  155.2784 C.2     1  UNL1        0.4055
     29 O         138.6102  136.8621  155.8483 O.2     1  UNL1       -0.2261
     30 H         141.1572  138.8920  154.6066 H       1  UNL1        0.1582
     31 O         138.4404  139.3141  155.0063 O.3     1  UNL1       -0.4304
     32 C         138.7684  140.6043  155.6977 C.3     1  UNL1        0.2574
     33 C         146.3652  142.4931  155.4283 C.3     1  UNL1        0.0992
     34 C         147.6786  142.1645  154.7827 C.ar    1  UNL1       -0.0060
     35 C         147.8121  142.2088  153.2893 C.ar    1  UNL1       -0.0006
     36 C         149.1255  141.8801  152.6436 C.ar    1  UNL1        0.0294
     37 C         150.3055  141.5071  153.4914 C.ar    1  UNL1        0.1401
     38 F         151.6189  141.1784  152.8458 F       1  UNL1       -0.2042
     39 C         150.1720  141.4628  154.9848 C.ar    1  UNL1        0.0294
     40 C         148.8585  141.7915  155.6304 C.ar    1  UNL1       -0.0006
@<TRIPOS>BOND
     1    17    18    1
     2    18    14    1
     3    14    19    1
     4    19    20    1
     5    14    15   am
     6    15    16    2
     7    15     8    1
     8     8     9   ar
     9     9    10   ar
    10    10    11   ar
    11    11     1    1
    12     1     2    2
    13     2     3    1
    14     3     4    1
    15     4     5    1
    16     5    33    1
    17    33    34    1
    18    34    35   ar
    19    35    36   ar
    20    36    37   ar
    21    37    38    1
    22    37    39   ar
    23    39    40   ar
    24     5     6    1
    25     6     7    1
    26     1    21    1
    27    21    22   ar
    28    22    23   ar
    29    23    24   ar
    30    24    25   ar
    31    25    26   ar
    32    26    27    1
    33    27    28   am
    34    28    29    2
    35    28    31    1
    36    31    32    1
    37    11    12   ar
    38    12    13   ar
    39    13     8   ar
    40     7     2    1
    41    26    21   ar
    42    40    34   ar
    43    27    30    1
@<TRIPOS>MOLECULE
*****
 40 43 0 0 0
SMALL
GASTEIGER

@<TRIPOS>ATOM
      1 C         141.3888  140.8457  158.4061 C.2     1  UNL1       -0.0066
      2 C         142.0670  139.6830  157.7442 C.2     1  UNL1       -0.0414
      3 C         142.0915  138.3445  158.4210 C.3     1  UNL1        0.0394
      4 C         142.7696  137.1818  157.7592 C.3     1  UNL1        0.0767
      5 N         143.4233  137.3574  156.4206 N.3     1  UNL1       -0.2683
      6 C         143.3988  138.6958  155.7438 C.3     1  UNL1        0.0767
      7 C         142.7206  139.8586  156.4056 C.3     1  UNL1        0.0394
      8 C         139.4278  140.3188  162.4219 C.ar    1  UNL1        0.0536
      9 C         140.8353  140.8302  162.3359 C.ar    1  UNL1        0.0045
     10 C         141.4889  141.0058  160.9973 C.ar    1  UNL1        0.0001
     11 C         140.7351  140.6701  159.7447 C.ar    1  UNL1       -0.0006
     12 C         139.3277  140.1587  159.8307 C.ar    1  UNL1        0.0001
     13 C         138.6740  139.9830  161.1693 C.ar    1  UNL1        0.0045
     14 N         138.9258  138.8500  164.5053 N.am    1  UNL1       -0.2761
     15 C         138.7741  140.1431  163.7605 C.2     1  UNL1        0.2490
     16 O         137.9688  141.2606  164.3543 O.2     1  UNL1       -0.2699
     17 C         138.8495  139.3463  167.0545 C.3     1  UNL1        0.0233
     18 C         138.2721  138.6744  165.8439 C.3     1  UNL1        0.0938
     19 C         139.7312  137.7325  163.9116 C.3     1  UNL1        0.0938
     20 C         141.1002  137.4293  164.4443 C.3     1  UNL1        0.0233
     21 C         141.3643  142.1841  157.7293 C.ar    1  UNL1        0.0130
     22 C         142.3634  143.2359  158.1109 C.ar    1  UNL1        0.0012
     23 C         142.3389  144.5743  157.4340 C.ar    1  UNL1        0.0001
     24 C         141.3153  144.8610  156.3757 C.ar    1  UNL1        0.0013
     25 C         140.3162  143.8092  155.9942 C.ar    1  UNL1        0.0148
     26 C         140.3407  142.4708  156.6710 C.ar    1  UNL1        0.0531
     27 N         139.3416  141.4191  156.2894 N.am    1  UNL1       -0.2499
     28 C         137.9346  141.4997  156.8030 C.2     1  UNL1        0.4055
     29 O         137.5266  142.6322  157.6981 O.2     1  UNL1       -0.2261
     30 H         139.6093  140.6758  155.7019 H       1  UNL1        0.1582
     31 O         136.9354  140.4479  156.4215 O.3     1  UNL1       -0.4304
     32 C         136.7144  140.1126  154.9762 C.3     1  UNL1        0.2574
     33 C         144.1015  136.1946  155.7587 C.3     1  UNL1        0.0992
     34 C         143.4118  134.8644  155.6894 C.ar    1  UNL1       -0.0060
     35 C         143.6651  133.8321  156.7478 C.ar    1  UNL1       -0.0006
     36 C         142.9755  132.5019  156.6785 C.ar    1  UNL1        0.0294
     37 C         142.0325  132.2039  155.5506 C.ar    1  UNL1        0.1401
     38 F         141.3428  130.8736  155.4812 F       1  UNL1       -0.2042
     39 C         141.7792  133.2361  154.4921 C.ar    1  UNL1        0.0294
     40 C         142.4689  134.5664  154.5615 C.ar    1  UNL1       -0.0006
@<TRIPOS>BOND
     1    17    18    1
     2    18    14    1
     3    14    19    1
     4    19    20    1
     5    14    15   am
     6    15    16    2
     7    15     8    1
     8     8     9   ar
     9     9    10   ar
    10    10    11   ar
    11    11     1    1
    12     1     2    2
    13     2     3    1
    14     3     4    1
    15     4     5    1
    16     5    33    1
    17    33    34    1
    18    34    35   ar
    19    35    36   ar
    20    36    37   ar
    21    37    38    1
    22    37    39   ar
    23    39    40   ar
    24     5     6    1
    25     6     7    1
    26     1    21    1
    27    21    22   ar
    28    22    23   ar
    29    23    24   ar
    30    24    25   ar
    31    25    26   ar
    32    26    27    1
    33    27    28   am
    34    28    29    2
    35    28    31    1
    36    31    32    1
    37    11    12   ar
    38    12    13   ar
    39    13     8   ar
    40     7     2    1
    41    26    21   ar
    42    40    34   ar
    43    27    30    1
