@<TRIPOS>MOLECULE
*****
 35 38 0 0 0
SMALL
GASTEIGER

@<TRIPOS>ATOM
      1 C         141.5625  140.4462  158.8974 C.ar    1  UNL1        0.0020
      2 C         141.3046  139.8757  157.5343 C.ar    1  UNL1       -0.0000
      3 C         141.7861  138.4962  157.1953 C.ar    1  UNL1        0.0031
      4 C         142.5255  137.6871  158.2194 C.ar    1  UNL1        0.0366
      5 C         142.7833  138.2576  159.5825 C.ar    1  UNL1        0.1346
      6 C         142.3018  139.6371  159.9214 C.ar    1  UNL1        0.0137
      7 C         142.5597  140.2077  161.2846 C.3     1  UNL1        0.0528
      8 C         143.2990  139.3986  162.3087 C.3     1  UNL1        0.1200
      9 C         143.7806  138.0190  161.9696 C.3     1  UNL1        0.2250
     10 O         143.5227  137.4485  160.6065 O.3     1  UNL1       -0.4740
     11 C         140.1179  144.5850  159.9145 C.ar    1  UNL1        0.3201
     12 N         141.4949  144.3881  159.3533 N.ar    1  UNL1       -0.1927
     13 C         141.9765  143.0084  159.0143 C.ar    1  UNL1        0.1051
     14 C         141.0809  141.8258  159.2364 C.ar    1  UNL1        0.0384
     15 C         139.7039  142.0227  159.7976 C.ar    1  UNL1        0.1051
     16 N         139.2223  143.4022  160.1367 N.ar    1  UNL1       -0.1927
     17 C         139.6394  146.4306  161.6793 C.3     1  UNL1        0.2559
     18 O         139.6363  145.9645  160.2536 O.3     1  UNL1       -0.4426
     19 N         143.5569  139.9691  163.6717 N.am    1  UNL1       -0.2986
     20 C         142.4253  140.1328  164.6426 C.2     1  UNL1        0.2474
     21 O         141.0358  139.7261  164.2505 O.2     1  UNL1       -0.2701
     22 H         144.4689  140.2361  163.9292 H       1  UNL1        0.1498
     23 C         142.6832  140.7034  166.0058 C.ar    1  UNL1        0.0725
     24 C         142.4251  139.8725  167.2277 C.ar    1  UNL1        0.0074
     25 C         142.6830  140.4429  168.5907 C.ar    1  UNL1        0.0174
     26 C         143.1990  141.8442  168.7319 C.ar    1  UNL1        0.0888
     27 N         143.4571  142.6751  167.5100 N.ar    1  UNL1       -0.2455
     28 C         143.1992  142.1047  166.1470 C.ar    1  UNL1        0.1030
     29 C         143.4569  142.4147  170.0951 C.3     1  UNL1        0.1878
     30 O         142.4716  143.3643  170.7094 O.3     1  UNL1       -0.3391
     31 C         141.1525  143.6132  170.0402 C.3     1  UNL1        0.2462
     32 C         140.0917  142.5528  170.0558 C.3     1  UNL1        0.4248
     33 F         139.0309  141.4924  170.0714 F       1  UNL1       -0.1674
     34 F         140.1590  142.5074  171.5536 F       1  UNL1       -0.1674
     35 F         140.0243  142.5981  168.5580 F       1  UNL1       -0.1674
@<TRIPOS>BOND
     1    17    18    1
     2    18    11    1
     3    11    12   ar
     4    12    13   ar
     5    13    14   ar
     6    14     1    1
     7     1     2   ar
     8     2     3   ar
     9     3     4   ar
    10     4     5   ar
    11     5     6   ar
    12     6     7    1
    13     7     8    1
    14     8    19    1
    15    19    20   am
    16    20    21    2
    17    20    23    1
    18    23    24   ar
    19    24    25   ar
    20    25    26   ar
    21    26    29    1
    22    29    30    1
    23    30    31    1
    24    31    32    1
    25    32    33    1
    26    32    34    1
    27    32    35    1
    28    26    27   ar
    29    27    28   ar
    30     8     9    1
    31     9    10    1
    32    14    15   ar
    33    15    16   ar
    34    16    11   ar
    35     6     1   ar
    36    28    23   ar
    37    10     5    1
    38    19    22    1
@<TRIPOS>MOLECULE
*****
 35 38 0 0 0
SMALL
GASTEIGER

@<TRIPOS>ATOM
      1 C         139.5588  142.5555  164.5552 C.ar    1  UNL1        0.0020
      2 C         138.7554  143.5413  165.3506 C.ar    1  UNL1       -0.0000
      3 C         137.8039  144.4686  164.6545 C.ar    1  UNL1        0.0031
      4 C         137.6557  144.4101  163.1629 C.ar    1  UNL1        0.0366
      5 C         138.4591  143.4243  162.3675 C.ar    1  UNL1        0.1346
      6 C         139.4106  142.4970  163.0637 C.ar    1  UNL1        0.0137
      7 C         140.2140  141.5110  162.2683 C.3     1  UNL1        0.0528
      8 C         140.0659  141.4525  160.7767 C.3     1  UNL1        0.1200
      9 C         139.1143  142.3799  160.0806 C.3     1  UNL1        0.2250
     10 O         138.3109  143.3658  160.8760 O.3     1  UNL1       -0.4740
     11 C         142.4134  139.7733  166.6435 C.ar    1  UNL1        0.3201
     12 N         142.8478  141.1638  166.2862 N.ar    1  UNL1       -0.1927
     13 C         141.8962  142.0912  165.5901 C.ar    1  UNL1        0.1051
     14 C         140.5104  141.6281  165.2513 C.ar    1  UNL1        0.0384
     15 C         140.0760  140.2375  165.6086 C.ar    1  UNL1        0.1051
     16 N         141.0275  139.3101  166.3047 N.ar    1  UNL1       -0.1927
     17 C         144.1029  137.8016  166.5555 C.3     1  UNL1        0.2559
     18 O         143.3649  138.8459  167.3396 O.3     1  UNL1       -0.4426
     19 N         140.8692  140.4667  159.9813 N.am    1  UNL1       -0.2986
     20 C         140.1755  139.3887  159.2024 C.2     1  UNL1        0.2474
     21 O         138.6785  139.2966  159.2188 O.2     1  UNL1       -0.2701
     22 H         141.8518  140.5272  159.9705 H       1  UNL1        0.1498
     23 C         140.9790  138.4029  158.4070 C.ar    1  UNL1        0.0725
     24 C         140.3909  137.7731  157.1791 C.ar    1  UNL1        0.0074
     25 C         141.1942  136.7873  156.3837 C.ar    1  UNL1        0.0174
     26 C         142.5857  136.4312  156.8161 C.ar    1  UNL1        0.0888
     27 N         143.1738  137.0610  158.0440 N.ar    1  UNL1       -0.2455
     28 C         142.3704  138.0468  158.8394 C.ar    1  UNL1        0.1030
     29 C         143.3891  135.4454  156.0207 C.3     1  UNL1        0.1878
     30 O         142.9549  134.0116  155.9447 O.3     1  UNL1       -0.3391
     31 C         143.1489  133.1057  157.1243 C.3     1  UNL1        0.2462
     32 C         144.5238  132.8840  157.6816 C.3     1  UNL1        0.4248
     33 F         145.8987  132.6623  158.2388 F       1  UNL1       -0.1674
     34 F         144.8183  131.9193  156.5714 F       1  UNL1       -0.1674
     35 F         144.2294  133.8488  158.7918 F       1  UNL1       -0.1674
@<TRIPOS>BOND
     1    17    18    1
     2    18    11    1
     3    11    12   ar
     4    12    13   ar
     5    13    14   ar
     6    14     1    1
     7     1     2   ar
     8     2     3   ar
     9     3     4   ar
    10     4     5   ar
    11     5     6   ar
    12     6     7    1
    13     7     8    1
    14     8    19    1
    15    19    20   am
    16    20    21    2
    17    20    23    1
    18    23    24   ar
    19    24    25   ar
    20    25    26   ar
    21    26    29    1
    22    29    30    1
    23    30    31    1
    24    31    32    1
    25    32    33    1
    26    32    34    1
    27    32    35    1
    28    26    27   ar
    29    27    28   ar
    30     8     9    1
    31     9    10    1
    32    14    15   ar
    33    15    16   ar
    34    16    11   ar
    35     6     1   ar
    36    28    23   ar
    37    10     5    1
    38    19    22    1
@<TRIPOS>MOLECULE
*****
 35 38 0 0 0
SMALL
GASTEIGER

@<TRIPOS>ATOM
      1 C         142.2266  142.1581  164.9502 C.ar    1  UNL1        0.0020
      2 C         143.3507  142.4506  165.8992 C.ar    1  UNL1       -0.0000
      3 C         144.3367  143.5356  165.5822 C.ar    1  UNL1        0.0031
      4 C         144.1986  144.3281  164.3162 C.ar    1  UNL1        0.0366
      5 C         143.0744  144.0357  163.3672 C.ar    1  UNL1        0.1346
      6 C         142.0884  142.9507  163.6842 C.ar    1  UNL1        0.0137
      7 C         140.9642  142.6581  162.7351 C.3     1  UNL1        0.0528
      8 C         140.8260  143.4506  161.4691 C.3     1  UNL1        0.1200
      9 C         141.8121  144.5357  161.1521 C.3     1  UNL1        0.2250
     10 O         142.9363  144.8282  162.1011 O.3     1  UNL1       -0.4740
     11 C         139.2684  138.9031  165.9012 C.ar    1  UNL1        0.3201
     12 N         140.4647  138.6033  165.0474 N.ar    1  UNL1       -0.1927
     13 C         141.4508  139.6883  164.7304 C.ar    1  UNL1        0.1051
     14 C         141.2405  141.0731  165.2672 C.ar    1  UNL1        0.0384
     15 C         140.0442  141.3729  166.1210 C.ar    1  UNL1        0.1051
     16 N         139.0581  140.2879  166.4380 N.ar    1  UNL1       -0.1927
     17 C         137.2638  138.0231  167.3001 C.3     1  UNL1        0.2559
     18 O         138.2823  137.8181  166.2181 O.3     1  UNL1       -0.4426
     19 N         139.7019  143.1582  160.5201 N.am    1  UNL1       -0.2986
     20 C         139.9219  142.2349  159.3585 C.2     1  UNL1        0.2474
     21 O         141.2661  141.6041  159.1460 O.2     1  UNL1       -0.2701
     22 H         138.8196  143.5722  160.6595 H       1  UNL1        0.1498
     23 C         138.7977  141.9424  158.4095 C.ar    1  UNL1        0.0725
     24 C         138.3845  142.9693  157.3971 C.ar    1  UNL1        0.0074
     25 C         137.2603  142.6769  156.4481 C.ar    1  UNL1        0.0174
     26 C         136.5493  141.3576  156.5114 C.ar    1  UNL1        0.0888
     27 N         136.9626  140.3307  157.5238 N.ar    1  UNL1       -0.2455
     28 C         138.0867  140.6232  158.4728 C.ar    1  UNL1        0.1030
     29 C         135.4251  141.0651  155.5624 C.3     1  UNL1        0.1878
     30 O         134.7204  139.7422  155.6195 O.3     1  UNL1       -0.3391
     31 C         133.3007  139.6688  156.0980 C.3     1  UNL1        0.2462
     32 C         132.9585  138.8516  157.3085 C.3     1  UNL1        0.4248
     33 F         132.6164  138.0345  158.5190 F       1  UNL1       -0.1674
     34 F         131.9790  138.0579  156.4958 F       1  UNL1       -0.1674
     35 F         133.9381  139.6454  158.1212 F       1  UNL1       -0.1674
@<TRIPOS>BOND
     1    17    18    1
     2    18    11    1
     3    11    12   ar
     4    12    13   ar
     5    13    14   ar
     6    14     1    1
     7     1     2   ar
     8     2     3   ar
     9     3     4   ar
    10     4     5   ar
    11     5     6   ar
    12     6     7    1
    13     7     8    1
    14     8    19    1
    15    19    20   am
    16    20    21    2
    17    20    23    1
    18    23    24   ar
    19    24    25   ar
    20    25    26   ar
    21    26    29    1
    22    29    30    1
    23    30    31    1
    24    31    32    1
    25    32    33    1
    26    32    34    1
    27    32    35    1
    28    26    27   ar
    29    27    28   ar
    30     8     9    1
    31     9    10    1
    32    14    15   ar
    33    15    16   ar
    34    16    11   ar
    35     6     1   ar
    36    28    23   ar
    37    10     5    1
    38    19    22    1
@<TRIPOS>MOLECULE
*****
 35 38 0 0 0
SMALL
GASTEIGER

@<TRIPOS>ATOM
      1 C         138.9261  140.3042  164.3501 C.ar    1  UNL1        0.0020
      2 C         138.0599  139.9030  165.5071 C.ar    1  UNL1       -0.0000
      3 C         138.1565  138.5163  166.0707 C.ar    1  UNL1        0.0031
      4 C         139.1193  137.5309  165.4774 C.ar    1  UNL1        0.0366
      5 C         139.9855  137.9322  164.3205 C.ar    1  UNL1        0.1346
      6 C         139.8890  139.3188  163.7568 C.ar    1  UNL1        0.0137
      7 C         140.7552  139.7202  162.5998 C.3     1  UNL1        0.0528
      8 C         141.7180  138.7348  162.0065 C.3     1  UNL1        0.1200
      9 C         141.8146  137.3480  162.5703 C.3     1  UNL1        0.2250
     10 O         140.9483  136.9468  163.7272 O.3     1  UNL1       -0.4740
     11 C         138.6365  144.4644  162.6589 C.ar    1  UNL1        0.3201
     12 N         139.5578  144.1849  163.8092 N.ar    1  UNL1       -0.1927
     13 C         139.6543  142.7981  164.3729 C.ar    1  UNL1        0.1051
     14 C         138.8296  141.6910  163.7864 C.ar    1  UNL1        0.0384
     15 C         137.9084  141.9705  162.6361 C.ar    1  UNL1        0.1051
     16 N         137.8118  143.3571  162.0724 N.ar    1  UNL1       -0.1927
     17 C         139.7340  146.4789  161.4395 C.3     1  UNL1        0.2559
     18 O         138.5399  145.8510  162.0952 O.3     1  UNL1       -0.4426
     19 N         142.5842  139.1360  160.8496 N.am    1  UNL1       -0.2986
     20 C         142.1121  138.9073  159.4443 C.2     1  UNL1        0.2474
     21 O         140.7736  138.2773  159.1960 O.2     1  UNL1       -0.2701
     22 H         143.4627  139.5495  161.0125 H       1  UNL1        0.1498
     23 C         142.9784  139.3086  158.2874 C.ar    1  UNL1        0.0725
     24 C         142.7630  138.6885  156.9386 C.ar    1  UNL1        0.0074
     25 C         143.6293  139.0897  155.7817 C.ar    1  UNL1        0.0174
     26 C         144.7109  140.1111  155.9735 C.ar    1  UNL1        0.0888
     27 N         144.9262  140.7313  157.3222 N.ar    1  UNL1       -0.2455
     28 C         144.0600  140.3300  158.4791 C.ar    1  UNL1        0.1030
     29 C         145.5772  140.5124  154.8165 C.3     1  UNL1        0.1878
     30 O         145.7081  141.9596  154.4441 O.3     1  UNL1       -0.3391
     31 C         147.0672  142.5813  154.3169 C.3     1  UNL1        0.2462
     32 C         148.1255  142.2861  155.3381 C.3     1  UNL1        0.4248
     33 F         149.1838  141.9909  156.3592 F       1  UNL1       -0.1674
     34 F         147.3051  142.9756  156.3876 F       1  UNL1       -0.1674
     35 F         148.9458  141.5966  154.2885 F       1  UNL1       -0.1674
@<TRIPOS>BOND
     1    17    18    1
     2    18    11    1
     3    11    12   ar
     4    12    13   ar
     5    13    14   ar
     6    14     1    1
     7     1     2   ar
     8     2     3   ar
     9     3     4   ar
    10     4     5   ar
    11     5     6   ar
    12     6     7    1
    13     7     8    1
    14     8    19    1
    15    19    20   am
    16    20    21    2
    17    20    23    1
    18    23    24   ar
    19    24    25   ar
    20    25    26   ar
    21    26    29    1
    22    29    30    1
    23    30    31    1
    24    31    32    1
    25    32    33    1
    26    32    34    1
    27    32    35    1
    28    26    27   ar
    29    27    28   ar
    30     8     9    1
    31     9    10    1
    32    14    15   ar
    33    15    16   ar
    34    16    11   ar
    35     6     1   ar
    36    28    23   ar
    37    10     5    1
    38    19    22    1
@<TRIPOS>MOLECULE
*****
 35 38 0 0 0
SMALL
GASTEIGER

@<TRIPOS>ATOM
      1 C         140.8171  142.4131  166.5491 C.ar    1  UNL1        0.0020
      2 C         140.5539  142.8617  167.9560 C.ar    1  UNL1       -0.0000
      3 C         140.9758  142.0003  169.1092 C.ar    1  UNL1        0.0031
      4 C         141.6609  140.6903  168.8555 C.ar    1  UNL1        0.0366
      5 C         141.9242  140.2417  167.4486 C.ar    1  UNL1        0.1346
      6 C         141.5023  141.1031  166.2954 C.ar    1  UNL1        0.0137
      7 C         141.7655  140.6545  164.8884 C.3     1  UNL1        0.0528
      8 C         142.4506  139.3445  164.6347 C.3     1  UNL1        0.1200
      9 C         142.8725  138.4830  165.7879 C.3     1  UNL1        0.2250
     10 O         142.6093  138.9316  167.1948 O.3     1  UNL1       -0.4740
     11 C         139.5514  144.9975  163.0894 C.ar    1  UNL1        0.3201
     12 N         138.5212  144.2517  163.8847 N.ar    1  UNL1       -0.1927
     13 C         138.9432  143.3903  165.0380 C.ar    1  UNL1        0.1051
     14 C         140.3952  143.2746  165.3958 C.ar    1  UNL1        0.0384
     15 C         141.4254  144.0203  164.6005 C.ar    1  UNL1        0.1051
     16 N         141.0036  144.8818  163.4473 N.ar    1  UNL1       -0.1927
     17 C         139.9467  145.8812  160.6785 C.3     1  UNL1        0.2559
     18 O         139.1296  145.8589  161.9361 O.3     1  UNL1       -0.4426
     19 N         142.7138  138.8959  163.2278 N.am    1  UNL1       -0.2986
     20 C         141.5877  138.8274  162.2392 C.2     1  UNL1        0.2474
     21 O         140.1983  139.2076  162.6576 O.2     1  UNL1       -0.2701
     22 H         143.6257  138.6463  162.9531 H       1  UNL1        0.1498
     23 C         141.8510  138.3788  160.8323 C.ar    1  UNL1        0.0725
     24 C         140.9034  138.7602  159.7338 C.ar    1  UNL1        0.0074
     25 C         141.1667  138.3116  158.3269 C.ar    1  UNL1        0.0174
     26 C         142.3774  137.4816  158.0185 C.ar    1  UNL1        0.0888
     27 N         143.3250  137.1003  159.1170 N.ar    1  UNL1       -0.2455
     28 C         143.0617  137.5488  160.5239 C.ar    1  UNL1        0.1030
     29 C         142.6407  137.0330  156.6115 C.3     1  UNL1        0.1878
     30 O         143.6028  135.9125  156.3492 O.3     1  UNL1       -0.3391
     31 C         143.1849  134.4927  156.5927 C.3     1  UNL1        0.2462
     32 C         144.1532  133.5187  157.1958 C.3     1  UNL1        0.4248
     33 F         145.1215  132.5448  157.7990 F       1  UNL1       -0.1674
     34 F         144.4885  133.0044  155.8272 F       1  UNL1       -0.1674
     35 F         143.8180  134.0330  158.5645 F       1  UNL1       -0.1674
@<TRIPOS>BOND
     1    17    18    1
     2    18    11    1
     3    11    12   ar
     4    12    13   ar
     5    13    14   ar
     6    14     1    1
     7     1     2   ar
     8     2     3   ar
     9     3     4   ar
    10     4     5   ar
    11     5     6   ar
    12     6     7    1
    13     7     8    1
    14     8    19    1
    15    19    20   am
    16    20    21    2
    17    20    23    1
    18    23    24   ar
    19    24    25   ar
    20    25    26   ar
    21    26    29    1
    22    29    30    1
    23    30    31    1
    24    31    32    1
    25    32    33    1
    26    32    34    1
    27    32    35    1
    28    26    27   ar
    29    27    28   ar
    30     8     9    1
    31     9    10    1
    32    14    15   ar
    33    15    16   ar
    34    16    11   ar
    35     6     1   ar
    36    28    23   ar
    37    10     5    1
    38    19    22    1
@<TRIPOS>MOLECULE
*****
 35 38 0 0 0
SMALL
GASTEIGER

@<TRIPOS>ATOM
      1 C         141.7636  140.8496  158.3224 C.ar    1  UNL1        0.0020
      2 C         141.8627  140.5884  156.8487 C.ar    1  UNL1       -0.0000
      3 C         142.3605  139.2628  156.3538 C.ar    1  UNL1        0.0031
      4 C         142.7593  138.1985  157.3326 C.ar    1  UNL1        0.0366
      5 C         142.6603  138.4597  158.8064 C.ar    1  UNL1        0.1346
      6 C         142.1624  139.7852  159.3013 C.ar    1  UNL1        0.0137
      7 C         142.0634  140.0465  160.7751 C.3     1  UNL1        0.0528
      8 C         142.4622  138.9822  161.7539 C.3     1  UNL1        0.1200
      9 C         142.9600  137.6565  161.2589 C.3     1  UNL1        0.2250
     10 O         143.0591  137.3953  159.7852 O.3     1  UNL1       -0.4740
     11 C         140.2701  144.8264  159.8073 C.ar    1  UNL1        0.3201
     12 N         139.3045  143.7028  159.5725 N.ar    1  UNL1       -0.1927
     13 C         139.8024  142.3772  159.0775 C.ar    1  UNL1        0.1051
     14 C         141.2658  142.1752  158.8174 C.ar    1  UNL1        0.0384
     15 C         142.2314  143.2988  159.0522 C.ar    1  UNL1        0.1051
     16 N         141.7336  144.6244  159.5472 N.ar    1  UNL1       -0.1927
     17 C         139.6231  146.3947  161.7749 C.3     1  UNL1        0.2559
     18 O         139.7724  146.1520  160.3023 O.3     1  UNL1       -0.4426
     19 N         142.3631  139.2434  163.2276 N.am    1  UNL1       -0.2986
     20 C         141.0315  139.1711  163.9143 C.2     1  UNL1        0.2474
     21 O         139.7989  138.8375  163.1273 O.2     1  UNL1       -0.2701
     22 H         143.1721  139.4623  163.7442 H       1  UNL1        0.1498
     23 C         140.9325  139.4323  165.3881 C.ar    1  UNL1        0.0725
     24 C         139.6126  139.8019  165.9973 C.ar    1  UNL1        0.0074
     25 C         139.5135  140.0631  167.4710 C.ar    1  UNL1        0.0174
     26 C         140.7345  139.9547  168.3356 C.ar    1  UNL1        0.0888
     27 N         142.0544  139.5851  167.7264 N.ar    1  UNL1       -0.2455
     28 C         142.1535  139.3239  166.2527 C.ar    1  UNL1        0.1030
     29 C         140.6355  140.2160  169.8094 C.3     1  UNL1        0.1878
     30 O         140.8775  141.5963  170.3443 O.3     1  UNL1       -0.3391
     31 C         141.7154  142.5663  169.5652 C.3     1  UNL1        0.2462
     32 C         143.1908  142.6566  169.8202 C.3     1  UNL1        0.4248
     33 F         144.6662  142.7468  170.0752 F       1  UNL1       -0.1674
     34 F         143.4585  142.3723  168.3719 F       1  UNL1       -0.1674
     35 F         142.9231  142.9408  171.2685 F       1  UNL1       -0.1674
@<TRIPOS>BOND
     1    17    18    1
     2    18    11    1
     3    11    12   ar
     4    12    13   ar
     5    13    14   ar
     6    14     1    1
     7     1     2   ar
     8     2     3   ar
     9     3     4   ar
    10     4     5   ar
    11     5     6   ar
    12     6     7    1
    13     7     8    1
    14     8    19    1
    15    19    20   am
    16    20    21    2
    17    20    23    1
    18    23    24   ar
    19    24    25   ar
    20    25    26   ar
    21    26    29    1
    22    29    30    1
    23    30    31    1
    24    31    32    1
    25    32    33    1
    26    32    34    1
    27    32    35    1
    28    26    27   ar
    29    27    28   ar
    30     8     9    1
    31     9    10    1
    32    14    15   ar
    33    15    16   ar
    34    16    11   ar
    35     6     1   ar
    36    28    23   ar
    37    10     5    1
    38    19    22    1
@<TRIPOS>MOLECULE
*****
 35 38 0 0 0
SMALL
GASTEIGER

@<TRIPOS>ATOM
      1 C         141.0760  142.8470  157.6573 C.ar    1  UNL1        0.0020
      2 C         140.8983  143.4223  156.2834 C.ar    1  UNL1       -0.0000
      3 C         140.3975  144.8264  156.1173 C.ar    1  UNL1        0.0031
      4 C         140.0744  145.6553  157.3250 C.ar    1  UNL1        0.0366
      5 C         140.2521  145.0800  158.6989 C.ar    1  UNL1        0.1346
      6 C         140.7529  143.6759  158.8650 C.ar    1  UNL1        0.0137
      7 C         140.9307  143.1006  160.2389 C.3     1  UNL1        0.0528
      8 C         140.6076  143.9295  161.4466 C.3     1  UNL1        0.1200
      9 C         140.1068  145.3337  161.2804 C.3     1  UNL1        0.2250
     10 O         139.9291  145.9089  159.9066 O.3     1  UNL1       -0.4740
     11 C         142.5784  138.6346  158.1558 C.ar    1  UNL1        0.3201
     12 N         143.5521  139.7710  158.0542 N.ar    1  UNL1       -0.1927
     13 C         143.0513  141.1752  157.8880 C.ar    1  UNL1        0.1051
     14 C         141.5768  141.4429  157.8234 C.ar    1  UNL1        0.0384
     15 C         140.6031  140.3064  157.9250 C.ar    1  UNL1        0.1051
     16 N         141.1038  138.9023  158.0912 N.ar    1  UNL1       -0.1927
     17 C         142.8939  136.2325  157.2175 C.3     1  UNL1        0.2559
     18 O         143.0791  137.2305  158.3219 O.3     1  UNL1       -0.4426
     19 N         140.7853  143.3543  162.8204 N.am    1  UNL1       -0.2986
     20 C         139.5972  142.8387  163.5771 C.2     1  UNL1        0.2474
     21 O         138.2314  142.8983  162.9600 O.2     1  UNL1       -0.2701
     22 H         141.6818  143.3151  163.2255 H       1  UNL1        0.1498
     23 C         139.7750  142.2634  164.9510 C.ar    1  UNL1        0.0725
     24 C         140.5192  143.0382  165.9980 C.ar    1  UNL1        0.0074
     25 C         140.6970  142.4630  167.3718 C.ar    1  UNL1        0.0174
     26 C         140.1306  141.1131  167.6987 C.ar    1  UNL1        0.0888
     27 N         139.3865  140.3383  166.6518 N.ar    1  UNL1       -0.2455
     28 C         139.2087  140.9135  165.2780 C.ar    1  UNL1        0.1030
     29 C         140.3084  140.5378  169.0726 C.3     1  UNL1        0.1878
     30 O         140.4388  141.4498  170.2564 O.3     1  UNL1       -0.3391
     31 C         141.7669  141.6143  170.9338 C.3     1  UNL1        0.2462
     32 C         142.9607  142.0642  170.1448 C.3     1  UNL1        0.4248
     33 F         144.1544  142.5142  169.3558 F       1  UNL1       -0.1674
     34 F         142.4119  143.4598  170.1104 F       1  UNL1       -0.1674
     35 F         143.5095  140.6686  170.1792 F       1  UNL1       -0.1674
@<TRIPOS>BOND
     1    17    18    1
     2    18    11    1
     3    11    12   ar
     4    12    13   ar
     5    13    14   ar
     6    14     1    1
     7     1     2   ar
     8     2     3   ar
     9     3     4   ar
    10     4     5   ar
    11     5     6   ar
    12     6     7    1
    13     7     8    1
    14     8    19    1
    15    19    20   am
    16    20    21    2
    17    20    23    1
    18    23    24   ar
    19    24    25   ar
    20    25    26   ar
    21    26    29    1
    22    29    30    1
    23    30    31    1
    24    31    32    1
    25    32    33    1
    26    32    34    1
    27    32    35    1
    28    26    27   ar
    29    27    28   ar
    30     8     9    1
    31     9    10    1
    32    14    15   ar
    33    15    16   ar
    34    16    11   ar
    35     6     1   ar
    36    28    23   ar
    37    10     5    1
    38    19    22    1
@<TRIPOS>MOLECULE
*****
 35 38 0 0 0
SMALL
GASTEIGER

@<TRIPOS>ATOM
      1 C         140.8932  143.4040  160.9123 C.ar    1  UNL1        0.0020
      2 C         140.5844  144.4745  159.9080 C.ar    1  UNL1       -0.0000
      3 C         139.9522  145.7600  160.3524 C.ar    1  UNL1        0.0031
      4 C         139.6289  145.9752  161.8013 C.ar    1  UNL1        0.0366
      5 C         139.9377  144.9048  162.8056 C.ar    1  UNL1        0.1346
      6 C         140.5698  143.6192  162.3612 C.ar    1  UNL1        0.0137
      7 C         140.8787  142.5487  163.3655 C.3     1  UNL1        0.0528
      8 C         140.5553  142.7638  164.8144 C.3     1  UNL1        0.1200
      9 C         139.9231  144.0495  165.2588 C.3     1  UNL1        0.2250
     10 O         139.6143  145.1199  164.2545 O.3     1  UNL1       -0.4740
     11 C         142.7897  139.5471  159.5790 C.ar    1  UNL1        0.3201
     12 N         143.6446  140.6578  160.1132 N.ar    1  UNL1       -0.1927
     13 C         143.0124  141.9435  160.5576 C.ar    1  UNL1        0.1051
     14 C         141.5254  142.1184  160.4679 C.ar    1  UNL1        0.0384
     15 C         140.6705  141.0076  159.9337 C.ar    1  UNL1        0.1051
     16 N         141.3026  139.7220  159.4892 N.ar    1  UNL1       -0.1927
     17 C         142.6866  137.3485  158.1987 C.3     1  UNL1        0.2559
     18 O         143.4218  138.2615  159.1345 O.3     1  UNL1       -0.4426
     19 N         140.8641  141.6934  165.8187 N.am    1  UNL1       -0.2986
     20 C         142.1626  141.7211  166.5691 C.2     1  UNL1        0.2474
     21 O         143.1523  142.8192  166.3151 O.2     1  UNL1       -0.2701
     22 H         140.2145  140.9727  165.9855 H       1  UNL1        0.1498
     23 C         142.4714  140.6506  167.5735 C.ar    1  UNL1        0.0725
     24 C         142.1975  140.8865  169.0293 C.ar    1  UNL1        0.0074
     25 C         142.5062  139.8161  170.0337 C.ar    1  UNL1        0.0174
     26 C         143.0888  138.5097  169.5823 C.ar    1  UNL1        0.0888
     27 N         143.3627  138.2737  168.1265 N.ar    1  UNL1       -0.2455
     28 C         143.0540  139.3442  167.1221 C.ar    1  UNL1        0.1030
     29 C         143.3976  137.4392  170.5867 C.3     1  UNL1        0.1878
     30 O         144.3050  136.3034  170.2172 O.3     1  UNL1       -0.3391
     31 C         145.5842  136.0898  170.9708 C.3     1  UNL1        0.2462
     32 C         145.5569  135.9134  172.4601 C.3     1  UNL1        0.4248
     33 F         145.5296  135.7371  173.9495 F       1  UNL1       -0.1674
     34 F         145.0633  134.5079  172.2847 F       1  UNL1       -0.1674
     35 F         146.0505  137.3190  172.6356 F       1  UNL1       -0.1674
@<TRIPOS>BOND
     1    17    18    1
     2    18    11    1
     3    11    12   ar
     4    12    13   ar
     5    13    14   ar
     6    14     1    1
     7     1     2   ar
     8     2     3   ar
     9     3     4   ar
    10     4     5   ar
    11     5     6   ar
    12     6     7    1
    13     7     8    1
    14     8    19    1
    15    19    20   am
    16    20    21    2
    17    20    23    1
    18    23    24   ar
    19    24    25   ar
    20    25    26   ar
    21    26    29    1
    22    29    30    1
    23    30    31    1
    24    31    32    1
    25    32    33    1
    26    32    34    1
    27    32    35    1
    28    26    27   ar
    29    27    28   ar
    30     8     9    1
    31     9    10    1
    32    14    15   ar
    33    15    16   ar
    34    16    11   ar
    35     6     1   ar
    36    28    23   ar
    37    10     5    1
    38    19    22    1
@<TRIPOS>MOLECULE
*****
 35 38 0 0 0
SMALL
GASTEIGER

@<TRIPOS>ATOM
      1 C         141.9262  142.8752  157.7251 C.ar    1  UNL1        0.0020
      2 C         142.1066  143.5969  156.4227 C.ar    1  UNL1       -0.0000
      3 C         141.8265  145.0679  156.3353 C.ar    1  UNL1        0.0031
      4 C         141.3659  145.8171  157.5504 C.ar    1  UNL1        0.0366
      5 C         141.1854  145.0954  158.8529 C.ar    1  UNL1        0.1346
      6 C         141.4656  143.6244  158.9402 C.ar    1  UNL1        0.0137
      7 C         141.2852  142.9026  160.2428 C.3     1  UNL1        0.0528
      8 C         140.8246  143.6519  161.4579 C.3     1  UNL1        0.1200
      9 C         140.5444  145.1229  161.3704 C.3     1  UNL1        0.2250
     10 O         140.7248  145.8447  160.0680 O.3     1  UNL1       -0.4740
     11 C         142.7667  138.4621  157.9874 C.ar    1  UNL1        0.3201
     12 N         143.8639  139.4513  158.2475 N.ar    1  UNL1       -0.1927
     13 C         143.5837  140.9223  158.1600 C.ar    1  UNL1        0.1051
     14 C         142.2064  141.4041  157.8126 C.ar    1  UNL1        0.0384
     15 C         141.1092  140.4149  157.5525 C.ar    1  UNL1        0.1051
     16 N         141.3893  138.9440  157.6400 N.ar    1  UNL1       -0.1927
     17 C         142.8597  136.1191  156.8688 C.3     1  UNL1        0.2559
     18 O         143.0468  136.9911  158.0748 O.3     1  UNL1       -0.4426
     19 N         140.6441  142.9302  162.7604 N.am    1  UNL1       -0.2986
     20 C         141.7498  142.9244  163.7740 C.2     1  UNL1        0.2474
     21 O         143.0358  143.6403  163.4852 O.2     1  UNL1       -0.2701
     22 H         139.8000  142.4603  162.9499 H       1  UNL1        0.1498
     23 C         141.5693  142.2026  165.0766 C.ar    1  UNL1        0.0725
     24 C         140.3368  142.4363  165.8990 C.ar    1  UNL1        0.0074
     25 C         140.1563  141.7146  167.2015 C.ar    1  UNL1        0.0174
     26 C         141.2082  140.7592  167.6815 C.ar    1  UNL1        0.0888
     27 N         142.4407  140.5255  166.8591 N.ar    1  UNL1       -0.2455
     28 C         142.6212  141.2472  165.5566 C.ar    1  UNL1        0.1030
     29 C         141.0278  140.0374  168.9841 C.3     1  UNL1        0.1878
     30 O         140.3298  140.7144  170.1262 O.3     1  UNL1       -0.3391
     31 C         140.9513  141.9122  170.7810 C.3     1  UNL1        0.2462
     32 C         140.5927  143.2922  170.3150 C.3     1  UNL1        0.4248
     33 F         140.2341  144.6722  169.8491 F       1  UNL1       -0.1674
     34 F         139.2227  143.1355  170.9054 F       1  UNL1       -0.1674
     35 F         141.9627  143.4489  169.7247 F       1  UNL1       -0.1674
@<TRIPOS>BOND
     1    17    18    1
     2    18    11    1
     3    11    12   ar
     4    12    13   ar
     5    13    14   ar
     6    14     1    1
     7     1     2   ar
     8     2     3   ar
     9     3     4   ar
    10     4     5   ar
    11     5     6   ar
    12     6     7    1
    13     7     8    1
    14     8    19    1
    15    19    20   am
    16    20    21    2
    17    20    23    1
    18    23    24   ar
    19    24    25   ar
    20    25    26   ar
    21    26    29    1
    22    29    30    1
    23    30    31    1
    24    31    32    1
    25    32    33    1
    26    32    34    1
    27    32    35    1
    28    26    27   ar
    29    27    28   ar
    30     8     9    1
    31     9    10    1
    32    14    15   ar
    33    15    16   ar
    34    16    11   ar
    35     6     1   ar
    36    28    23   ar
    37    10     5    1
    38    19    22    1
