@<TRIPOS>MOLECULE
*****
 24 27 0 0 0
SMALL
GASTEIGER

@<TRIPOS>ATOM
      1 C         138.6442  140.1011  161.9430 C.3     1  UNL1        0.0899
      2 N         138.8326  140.4683  163.3851 N.3     1  UNL1       -0.2667
      3 C         138.9245  141.9109  163.7859 C.3     1  UNL1        0.0978
      4 C         137.7003  142.6374  164.2585 C.3     1  UNL1        0.0224
      5 C         137.7921  144.0799  164.6593 C.3     1  UNL1        0.0065
      6 C         139.1082  144.7960  164.5874 C.3     1  UNL1        0.0277
      7 C         140.3324  144.0695  164.1148 C.ar    1  UNL1       -0.0073
      8 C         141.6486  144.7855  164.0429 C.ar    1  UNL1       -0.0015
      9 C         142.8728  144.0590  163.5702 C.ar    1  UNL1        0.0203
     10 C         142.7809  142.6165  163.1694 C.ar    1  UNL1        0.0985
     11 N         141.4649  141.9004  163.2413 N.ar    1  UNL1       -0.2471
     12 C         140.2406  142.6269  163.7140 C.ar    1  UNL1        0.0695
     13 C         138.9293  139.3930  164.4263 C.3     1  UNL1        0.0886
     14 C         139.8330  139.5740  165.6098 C.3     1  UNL1        0.0764
     15 C         139.2494  139.7185  166.9840 C.3     1  UNL1        0.0626
     16 C         140.1531  139.8995  168.1675 C.ar    1  UNL1        0.0577
     17 N         139.5695  140.0440  169.5417 N.ar    1  UNL1       -0.2484
     18 C         140.4732  140.2250  170.7251 C.ar    1  UNL1        0.0984
     19 C         141.9606  140.2614  170.5343 C.ar    1  UNL1        0.0204
     20 C         142.5442  140.1169  169.1601 C.ar    1  UNL1       -0.0002
     21 C         141.6405  139.9360  167.9767 C.ar    1  UNL1        0.0073
     22 C         142.2241  139.7914  166.6024 C.3     1  UNL1        0.0968
     23 N         141.3204  139.6105  165.4190 N.3     1  UNL1       -0.2934
     24 H         141.5827  138.7277  164.9805 H       1  UNL1        0.1236
@<TRIPOS>BOND
     1     1     2    1
     2     2    13    1
     3    14    13    1
     4    14    15    1
     5    15    16    1
     6    16    17   ar
     7    17    18   ar
     8    18    19   ar
     9    19    20   ar
    10    20    21   ar
    11    21    22    1
    12    22    23    1
    13     3     2    1
    14     3     4    1
    15     4     5    1
    16     5     6    1
    17     6     7    1
    18     7     8   ar
    19     8     9   ar
    20     9    10   ar
    21    10    11   ar
    22    11    12   ar
    23    23    14    1
    24    12     3    1
    25    21    16   ar
    26    12     7   ar
    27    23    24    1
@<TRIPOS>MOLECULE
*****
 24 27 0 0 0
SMALL
GASTEIGER

@<TRIPOS>ATOM
      1 C         142.5880  139.6872  168.4640 C.3     1  UNL1        0.0899
      2 N         141.6216  140.4178  167.5795 N.3     1  UNL1       -0.2667
      3 C         140.5620  139.6581  166.8378 C.3     1  UNL1        0.0978
      4 C         139.1711  139.5752  167.3929 C.3     1  UNL1        0.0224
      5 C         138.1115  138.8155  166.6511 C.3     1  UNL1        0.0065
      6 C         138.4430  138.1387  165.3542 C.3     1  UNL1        0.0277
      7 C         139.8339  138.2216  164.7991 C.ar    1  UNL1       -0.0073
      8 C         140.1654  137.5448  163.5021 C.ar    1  UNL1       -0.0015
      9 C         141.5564  137.6277  162.9469 C.ar    1  UNL1        0.0203
     10 C         142.6160  138.3874  163.6887 C.ar    1  UNL1        0.0985
     11 N         142.2845  139.0642  164.9856 N.ar    1  UNL1       -0.2471
     12 C         140.8935  138.9813  165.5408 C.ar    1  UNL1        0.0695
     13 C         141.7147  141.9081  167.4369 C.3     1  UNL1        0.0886
     14 C         141.7172  142.5323  166.0729 C.3     1  UNL1        0.0764
     15 C         140.5544  143.3695  165.6291 C.3     1  UNL1        0.0626
     16 C         140.5568  143.9937  164.2651 C.ar    1  UNL1        0.0577
     17 N         139.3940  144.8309  163.8213 N.ar    1  UNL1       -0.2484
     18 C         139.3965  145.4550  162.4574 C.ar    1  UNL1        0.0984
     19 C         140.5618  145.2419  161.5372 C.ar    1  UNL1        0.0204
     20 C         141.7246  144.4047  161.9809 C.ar    1  UNL1       -0.0002
     21 C         141.7221  143.7806  163.3449 C.ar    1  UNL1        0.0073
     22 C         142.8849  142.9433  163.7887 C.3     1  UNL1        0.0968
     23 N         142.8824  142.3192  165.1527 N.3     1  UNL1       -0.2934
     24 H         143.7086  142.6688  165.6380 H       1  UNL1        0.1236
@<TRIPOS>BOND
     1     1     2    1
     2     2    13    1
     3    14    13    1
     4    14    15    1
     5    15    16    1
     6    16    17   ar
     7    17    18   ar
     8    18    19   ar
     9    19    20   ar
    10    20    21   ar
    11    21    22    1
    12    22    23    1
    13     3     2    1
    14     3     4    1
    15     4     5    1
    16     5     6    1
    17     6     7    1
    18     7     8   ar
    19     8     9   ar
    20     9    10   ar
    21    10    11   ar
    22    11    12   ar
    23    23    14    1
    24    12     3    1
    25    21    16   ar
    26    12     7   ar
    27    23    24    1
@<TRIPOS>MOLECULE
*****
 24 27 0 0 0
SMALL
GASTEIGER

@<TRIPOS>ATOM
      1 C         137.5255  138.4344  167.0913 C.3     1  UNL1        0.0899
      2 N         138.6755  138.6132  166.1451 N.3     1  UNL1       -0.2667
      3 C         139.3657  139.9413  166.0461 C.3     1  UNL1        0.0978
      4 C         140.5083  140.2630  166.9631 C.3     1  UNL1        0.0224
      5 C         141.1985  141.5910  166.8640 C.3     1  UNL1        0.0065
      6 C         140.7461  142.5975  165.8480 C.3     1  UNL1        0.0277
      7 C         139.6035  142.2758  164.9310 C.ar    1  UNL1       -0.0073
      8 C         139.1511  143.2823  163.9149 C.ar    1  UNL1       -0.0015
      9 C         138.0085  142.9606  162.9979 C.ar    1  UNL1        0.0203
     10 C         137.3183  141.6325  163.0969 C.ar    1  UNL1        0.0985
     11 N         137.7707  140.6261  164.1130 N.ar    1  UNL1       -0.2471
     12 C         138.9133  140.9477  165.0300 C.ar    1  UNL1        0.0695
     13 C         139.1354  137.4640  165.2979 C.3     1  UNL1        0.0886
     14 C         139.7486  137.7216  163.9534 C.3     1  UNL1        0.0764
     15 C         141.2405  137.7783  163.8080 C.3     1  UNL1        0.0626
     16 C         141.8538  138.0359  162.4635 C.ar    1  UNL1        0.0577
     17 N         143.3456  138.0927  162.3181 N.ar    1  UNL1       -0.2484
     18 C         143.9588  138.3503  160.9737 C.ar    1  UNL1        0.0984
     19 C         143.0802  138.5511  159.7746 C.ar    1  UNL1        0.0204
     20 C         141.5884  138.4944  159.9200 C.ar    1  UNL1       -0.0002
     21 C         140.9752  138.2368  161.2645 C.ar    1  UNL1        0.0073
     22 C         139.4833  138.1800  161.4099 C.3     1  UNL1        0.0968
     23 N         138.8700  137.9224  162.7544 N.3     1  UNL1       -0.2934
     24 H         138.3009  137.0810  162.6621 H       1  UNL1        0.1236
@<TRIPOS>BOND
     1     1     2    1
     2     2    13    1
     3    14    13    1
     4    14    15    1
     5    15    16    1
     6    16    17   ar
     7    17    18   ar
     8    18    19   ar
     9    19    20   ar
    10    20    21   ar
    11    21    22    1
    12    22    23    1
    13     3     2    1
    14     3     4    1
    15     4     5    1
    16     5     6    1
    17     6     7    1
    18     7     8   ar
    19     8     9   ar
    20     9    10   ar
    21    10    11   ar
    22    11    12   ar
    23    23    14    1
    24    12     3    1
    25    21    16   ar
    26    12     7   ar
    27    23    24    1
@<TRIPOS>MOLECULE
*****
 24 27 0 0 0
SMALL
GASTEIGER

@<TRIPOS>ATOM
      1 C         142.1658  138.0100  162.1480 C.3     1  UNL1        0.0899
      2 N         142.0481  138.6270  163.5101 N.3     1  UNL1       -0.2667
      3 C         140.6945  138.8698  164.1090 C.3     1  UNL1        0.0978
      4 C         139.9888  137.7663  164.8399 C.3     1  UNL1        0.0224
      5 C         138.6352  138.0091  165.4388 C.3     1  UNL1        0.0065
      6 C         137.9872  139.3554  165.3070 C.3     1  UNL1        0.0277
      7 C         138.6929  140.4590  164.5762 C.ar    1  UNL1       -0.0073
      8 C         138.0449  141.8054  164.4443 C.ar    1  UNL1       -0.0015
      9 C         138.7506  142.9090  163.7134 C.ar    1  UNL1        0.0203
     10 C         140.1042  142.6662  163.1145 C.ar    1  UNL1        0.0985
     11 N         140.7522  141.3198  163.2463 N.ar    1  UNL1       -0.2471
     12 C         140.0465  140.2162  163.9772 C.ar    1  UNL1        0.0695
     13 C         143.2840  139.0013  164.2732 C.3     1  UNL1        0.0886
     14 C         143.1784  139.8659  165.4944 C.3     1  UNL1        0.0764
     15 C         142.9830  139.2387  166.8428 C.3     1  UNL1        0.0626
     16 C         142.8774  140.1033  168.0641 C.ar    1  UNL1        0.0577
     17 N         142.6819  139.4761  169.4125 N.ar    1  UNL1       -0.2484
     18 C         142.5764  140.3407  170.6336 C.ar    1  UNL1        0.0984
     19 C         142.6662  141.8326  170.5063 C.ar    1  UNL1        0.0204
     20 C         142.8617  142.4598  169.1579 C.ar    1  UNL1       -0.0002
     21 C         142.9672  141.5952  167.9368 C.ar    1  UNL1        0.0073
     22 C         143.1627  142.2225  166.5882 C.3     1  UNL1        0.0968
     23 N         143.2683  141.3578  165.3671 N.3     1  UNL1       -0.2934
     24 H         144.1707  141.5629  164.9382 H       1  UNL1        0.1236
@<TRIPOS>BOND
     1     1     2    1
     2     2    13    1
     3    14    13    1
     4    14    15    1
     5    15    16    1
     6    16    17   ar
     7    17    18   ar
     8    18    19   ar
     9    19    20   ar
    10    20    21   ar
    11    21    22    1
    12    22    23    1
    13     3     2    1
    14     3     4    1
    15     4     5    1
    16     5     6    1
    17     6     7    1
    18     7     8   ar
    19     8     9   ar
    20     9    10   ar
    21    10    11   ar
    22    11    12   ar
    23    23    14    1
    24    12     3    1
    25    21    16   ar
    26    12     7   ar
    27    23    24    1
@<TRIPOS>MOLECULE
*****
 24 27 0 0 0
SMALL
GASTEIGER

@<TRIPOS>ATOM
      1 C         137.6814  138.7346  167.0972 C.3     1  UNL1        0.0899
      2 N         138.8881  138.9814  166.2412 N.3     1  UNL1       -0.2667
      3 C         138.7524  139.0242  164.7480 C.3     1  UNL1        0.0978
      4 C         138.9781  137.7817  163.9385 C.3     1  UNL1        0.0224
      5 C         138.8424  137.8245  162.4452 C.3     1  UNL1        0.0065
      6 C         138.4809  139.1097  161.7615 C.3     1  UNL1        0.0277
      7 C         138.2552  140.3521  162.5710 C.ar    1  UNL1       -0.0073
      8 C         137.8937  141.6374  161.8873 C.ar    1  UNL1       -0.0015
      9 C         137.6680  142.8799  162.6968 C.ar    1  UNL1        0.0203
     10 C         137.8037  142.8371  164.1900 C.ar    1  UNL1        0.0985
     11 N         138.1652  141.5519  164.8737 N.ar    1  UNL1       -0.2471
     12 C         138.3909  140.3094  164.0642 C.ar    1  UNL1        0.0695
     13 C         140.2306  139.1854  166.8784 C.3     1  UNL1        0.0886
     14 C         141.1967  140.1721  166.2926 C.3     1  UNL1        0.0764
     15 C         142.4595  139.6899  165.6425 C.3     1  UNL1        0.0626
     16 C         143.4256  140.6766  165.0567 C.ar    1  UNL1        0.0577
     17 N         144.6884  140.1943  164.4065 N.ar    1  UNL1       -0.2484
     18 C         145.6545  141.1810  163.8207 C.ar    1  UNL1        0.0984
     19 C         145.3577  142.6499  163.8851 C.ar    1  UNL1        0.0204
     20 C         144.0949  143.1322  164.5353 C.ar    1  UNL1       -0.0002
     21 C         143.1289  142.1455  165.1211 C.ar    1  UNL1        0.0073
     22 C         141.8660  142.6278  165.7713 C.3     1  UNL1        0.0968
     23 N         140.9000  141.6411  166.3570 N.3     1  UNL1       -0.2934
     24 H         140.0093  141.7827  165.8806 H       1  UNL1        0.1236
@<TRIPOS>BOND
     1     1     2    1
     2     2    13    1
     3    14    13    1
     4    14    15    1
     5    15    16    1
     6    16    17   ar
     7    17    18   ar
     8    18    19   ar
     9    19    20   ar
    10    20    21   ar
    11    21    22    1
    12    22    23    1
    13     3     2    1
    14     3     4    1
    15     4     5    1
    16     5     6    1
    17     6     7    1
    18     7     8   ar
    19     8     9   ar
    20     9    10   ar
    21    10    11   ar
    22    11    12   ar
    23    23    14    1
    24    12     3    1
    25    21    16   ar
    26    12     7   ar
    27    23    24    1
@<TRIPOS>MOLECULE
*****
 24 27 0 0 0
SMALL
GASTEIGER

@<TRIPOS>ATOM
      1 C         145.0333  142.3421  158.2884 C.3     1  UNL1        0.0899
      2 N         143.8074  142.2560  159.1484 N.3     1  UNL1       -0.2667
      3 C         143.5555  141.0298  159.9747 C.3     1  UNL1        0.0978
      4 C         142.6884  139.9294  159.4387 C.3     1  UNL1        0.0224
      5 C         142.4364  138.7031  160.2649 C.3     1  UNL1        0.0065
      6 C         143.0515  138.5772  161.6272 C.3     1  UNL1        0.0277
      7 C         143.9186  139.6775  162.1632 C.ar    1  UNL1       -0.0073
      8 C         144.5337  139.5517  163.5255 C.ar    1  UNL1       -0.0015
      9 C         145.4007  140.6521  164.0615 C.ar    1  UNL1        0.0203
     10 C         145.6527  141.8784  163.2352 C.ar    1  UNL1        0.0985
     11 N         145.0376  142.0043  161.8730 N.ar    1  UNL1       -0.2471
     12 C         144.1705  140.9038  161.3369 C.ar    1  UNL1        0.0695
     13 C         142.8335  143.3963  159.1822 C.3     1  UNL1        0.0886
     14 C         142.1182  143.7343  160.4567 C.3     1  UNL1        0.0764
     15 C         140.6284  143.5837  160.5433 C.3     1  UNL1        0.0626
     16 C         139.9132  143.9217  161.8178 C.ar    1  UNL1        0.0577
     17 N         138.4233  143.7711  161.9043 N.ar    1  UNL1       -0.2484
     18 C         137.7081  144.1091  163.1788 C.ar    1  UNL1        0.0984
     19 C         138.4829  144.5977  164.3667 C.ar    1  UNL1        0.0204
     20 C         139.9728  144.7483  164.2801 C.ar    1  UNL1       -0.0002
     21 C         140.6879  144.4103  163.0056 C.ar    1  UNL1        0.0073
     22 C         142.1779  144.5609  162.9190 C.3     1  UNL1        0.0968
     23 N         142.8930  144.2229  161.6445 N.3     1  UNL1       -0.2934
     24 H         143.5725  143.4969  161.8718 H       1  UNL1        0.1236
@<TRIPOS>BOND
     1     1     2    1
     2     2    13    1
     3    14    13    1
     4    14    15    1
     5    15    16    1
     6    16    17   ar
     7    17    18   ar
     8    18    19   ar
     9    19    20   ar
    10    20    21   ar
    11    21    22    1
    12    22    23    1
    13     3     2    1
    14     3     4    1
    15     4     5    1
    16     5     6    1
    17     6     7    1
    18     7     8   ar
    19     8     9   ar
    20     9    10   ar
    21    10    11   ar
    22    11    12   ar
    23    23    14    1
    24    12     3    1
    25    21    16   ar
    26    12     7   ar
    27    23    24    1
@<TRIPOS>MOLECULE
*****
 24 27 0 0 0
SMALL
GASTEIGER

@<TRIPOS>ATOM
      1 C         142.2379  141.3163  161.0467 C.3     1  UNL1        0.0899
      2 N         141.6554  140.8047  162.3308 N.3     1  UNL1       -0.2667
      3 C         140.2025  141.0216  162.6343 C.3     1  UNL1        0.0978
      4 C         139.1945  139.9746  162.2634 C.3     1  UNL1        0.0224
      5 C         137.7416  140.1914  162.5669 C.3     1  UNL1        0.0065
      6 C         137.2967  141.4553  163.2412 C.3     1  UNL1        0.0277
      7 C         138.3048  142.5023  163.6120 C.ar    1  UNL1       -0.0073
      8 C         137.8600  143.7663  164.2863 C.ar    1  UNL1       -0.0015
      9 C         138.8680  144.8133  164.6571 C.ar    1  UNL1        0.0203
     10 C         140.3209  144.5964  164.3537 C.ar    1  UNL1        0.0985
     11 N         140.7658  143.3325  163.6794 N.ar    1  UNL1       -0.2471
     12 C         139.7577  142.2854  163.3086 C.ar    1  UNL1        0.0695
     13 C         142.5258  140.0762  163.3115 C.3     1  UNL1        0.0886
     14 C         142.7223  140.6265  164.6931 C.3     1  UNL1        0.0764
     15 C         142.4586  139.7611  165.8895 C.3     1  UNL1        0.0626
     16 C         142.6550  140.3114  167.2711 C.ar    1  UNL1        0.0577
     17 N         142.3913  139.4460  168.4676 N.ar    1  UNL1       -0.2484
     18 C         142.5878  139.9963  169.8491 C.ar    1  UNL1        0.0984
     19 C         143.0480  141.4119  170.0341 C.ar    1  UNL1        0.0204
     20 C         143.3117  142.2773  168.8376 C.ar    1  UNL1       -0.0002
     21 C         143.1152  141.7270  167.4561 C.ar    1  UNL1        0.0073
     22 C         143.3790  142.5924  166.2596 C.3     1  UNL1        0.0968
     23 N         143.1825  142.0421  164.8781 N.3     1  UNL1       -0.2934
     24 H         144.0784  142.1257  164.3977 H       1  UNL1        0.1236
@<TRIPOS>BOND
     1     1     2    1
     2     2    13    1
     3    14    13    1
     4    14    15    1
     5    15    16    1
     6    16    17   ar
     7    17    18   ar
     8    18    19   ar
     9    19    20   ar
    10    20    21   ar
    11    21    22    1
    12    22    23    1
    13     3     2    1
    14     3     4    1
    15     4     5    1
    16     5     6    1
    17     6     7    1
    18     7     8   ar
    19     8     9   ar
    20     9    10   ar
    21    10    11   ar
    22    11    12   ar
    23    23    14    1
    24    12     3    1
    25    21    16   ar
    26    12     7   ar
    27    23    24    1
@<TRIPOS>MOLECULE
*****
 24 27 0 0 0
SMALL
GASTEIGER

@<TRIPOS>ATOM
      1 C         142.9902  143.2007  161.6322 C.3     1  UNL1        0.0899
      2 N         142.6715  142.9697  163.0796 N.3     1  UNL1       -0.2667
      3 C         141.2746  143.1819  163.5832 C.3     1  UNL1        0.0978
      4 C         140.8587  144.5287  164.0960 C.3     1  UNL1        0.0224
      5 C         139.4618  144.7409  164.5996 C.3     1  UNL1        0.0065
      6 C         138.4808  143.6062  164.5904 C.3     1  UNL1        0.0277
      7 C         138.8967  142.2594  164.0776 C.ar    1  UNL1       -0.0073
      8 C         137.9157  141.1246  164.0683 C.ar    1  UNL1       -0.0015
      9 C         138.3316  139.7778  163.5555 C.ar    1  UNL1        0.0203
     10 C         139.7285  139.5656  163.0519 C.ar    1  UNL1        0.0985
     11 N         140.7095  140.7003  163.0611 N.ar    1  UNL1       -0.2471
     12 C         140.2936  142.0472  163.5740 C.ar    1  UNL1        0.0695
     13 C         143.7499  142.5266  164.0235 C.3     1  UNL1        0.0886
     14 C         143.3885  141.8214  165.2971 C.3     1  UNL1        0.0764
     15 C         143.3714  142.5759  166.5934 C.3     1  UNL1        0.0626
     16 C         143.0101  141.8707  167.8670 C.ar    1  UNL1        0.0577
     17 N         142.9929  142.6252  169.1633 N.ar    1  UNL1       -0.2484
     18 C         142.6316  141.9200  170.4368 C.ar    1  UNL1        0.0984
     19 C         142.2875  140.4602  170.4142 C.ar    1  UNL1        0.0204
     20 C         142.3047  139.7056  169.1179 C.ar    1  UNL1       -0.0002
     21 C         142.6659  140.4109  167.8444 C.ar    1  UNL1        0.0073
     22 C         142.6831  139.6563  166.5480 C.3     1  UNL1        0.0968
     23 N         143.0444  140.3616  165.2745 N.3     1  UNL1       -0.2934
     24 H         142.2497  140.2561  164.6438 H       1  UNL1        0.1236
@<TRIPOS>BOND
     1     1     2    1
     2     2    13    1
     3    14    13    1
     4    14    15    1
     5    15    16    1
     6    16    17   ar
     7    17    18   ar
     8    18    19   ar
     9    19    20   ar
    10    20    21   ar
    11    21    22    1
    12    22    23    1
    13     3     2    1
    14     3     4    1
    15     4     5    1
    16     5     6    1
    17     6     7    1
    18     7     8   ar
    19     8     9   ar
    20     9    10   ar
    21    10    11   ar
    22    11    12   ar
    23    23    14    1
    24    12     3    1
    25    21    16   ar
    26    12     7   ar
    27    23    24    1
@<TRIPOS>MOLECULE
*****
 24 27 0 0 0
SMALL
GASTEIGER

@<TRIPOS>ATOM
      1 C         139.5834  146.4657  161.3781 C.3     1  UNL1        0.0899
      2 N         139.8928  145.3508  162.3327 N.3     1  UNL1       -0.2667
      3 C         141.3140  144.9242  162.5525 C.3     1  UNL1        0.0978
      4 C         142.0743  145.4325  163.7414 C.3     1  UNL1        0.0224
      5 C         143.4954  145.0059  163.9612 C.3     1  UNL1        0.0065
      6 C         144.1563  144.0711  162.9920 C.3     1  UNL1        0.0277
      7 C         143.3960  143.5628  161.8031 C.ar    1  UNL1       -0.0073
      8 C         144.0569  142.6279  160.8339 C.ar    1  UNL1       -0.0015
      9 C         143.2966  142.1196  159.6450 C.ar    1  UNL1        0.0203
     10 C         141.8754  142.5462  159.4253 C.ar    1  UNL1        0.0985
     11 N         141.2145  143.4810  160.3944 N.ar    1  UNL1       -0.2471
     12 C         141.9748  143.9894  161.5834 C.ar    1  UNL1        0.0695
     13 C         138.7810  144.6625  163.0675 C.3     1  UNL1        0.0886
     14 C         138.7731  143.1671  163.1859 C.3     1  UNL1        0.0764
     15 C         138.8621  142.5213  164.5368 C.3     1  UNL1        0.0626
     16 C         138.8542  141.0259  164.6551 C.ar    1  UNL1        0.0577
     17 N         138.9432  140.3800  166.0060 N.ar    1  UNL1       -0.2484
     18 C         138.9353  138.8847  166.1243 C.ar    1  UNL1        0.0984
     19 C         138.8384  138.0354  164.8918 C.ar    1  UNL1        0.0204
     20 C         138.7494  138.6812  163.5409 C.ar    1  UNL1       -0.0002
     21 C         138.7573  140.1765  163.4226 C.ar    1  UNL1        0.0073
     22 C         138.6682  140.8225  162.0717 C.3     1  UNL1        0.0968
     23 N         138.6761  142.3177  161.9534 N.3     1  UNL1       -0.2934
     24 H         137.8105  142.5804  161.4821 H       1  UNL1        0.1236
@<TRIPOS>BOND
     1     1     2    1
     2     2    13    1
     3    14    13    1
     4    14    15    1
     5    15    16    1
     6    16    17   ar
     7    17    18   ar
     8    18    19   ar
     9    19    20   ar
    10    20    21   ar
    11    21    22    1
    12    22    23    1
    13     3     2    1
    14     3     4    1
    15     4     5    1
    16     5     6    1
    17     6     7    1
    18     7     8   ar
    19     8     9   ar
    20     9    10   ar
    21    10    11   ar
    22    11    12   ar
    23    23    14    1
    24    12     3    1
    25    21    16   ar
    26    12     7   ar
    27    23    24    1
