@<TRIPOS>MOLECULE
*****
 36 39 0 0 0
SMALL
GASTEIGER

@<TRIPOS>ATOM
      1 N         144.3019  142.1971  163.2241 N.3     1  UNL1       -0.2684
      2 C         143.8260  143.1854  164.2472 C.3     1  UNL1        0.1035
      3 C         142.5681  143.9664  164.0072 C.3     1  UNL1        0.1470
      4 C         141.3102  144.7475  163.7673 C.3     1  UNL1        0.1035
      5 N         140.5281  144.5403  162.5042 N.3     1  UNL1       -0.2673
      6 C         141.0040  143.5519  161.4810 C.3     1  UNL1        0.1035
      7 C         142.2619  142.7709  161.7210 C.3     1  UNL1        0.1470
      8 C         143.5198  141.9898  161.9610 C.3     1  UNL1        0.1035
      9 O         141.7861  143.7592  162.7441 O.3     1  UNL1       -0.3530
     10 C         145.5598  141.4160  163.4641 C.3     1  UNL1        0.0761
     11 C         145.5372  140.2153  164.3628 C.3     1  UNL1        0.0646
     12 C         144.3928  139.2479  164.2933 C.3     1  UNL1        0.2068
     13 O         142.9958  139.7174  164.5723 O.3     1  UNL1       -0.4754
     14 C         141.6867  140.4938  168.8071 C.ar    1  UNL1        0.0686
     15 C         142.5541  139.3105  168.4952 C.ar    1  UNL1        0.0134
     16 C         142.9905  139.0516  167.0837 C.ar    1  UNL1        0.0376
     17 C         142.5595  139.9762  165.9839 C.ar    1  UNL1        0.1386
     18 C         141.6921  141.1596  166.2957 C.ar    1  UNL1        0.0376
     19 C         141.2557  141.4184  167.7074 C.ar    1  UNL1        0.0134
     20 N         140.8140  141.0114  171.6303 N.1     1  UNL1       -0.1908
     21 C         141.2504  140.7527  170.2186 C.1     1  UNL1        0.1004
     22 C         139.2702  145.3213  162.2642 C.3     1  UNL1        0.0913
     23 C         137.9462  144.7606  162.6916 C.3     1  UNL1        0.1087
     24 N         137.4495  143.4753  162.0989 N.3     1  UNL1       -0.1780
     25 H         137.8290  143.4208  161.1537 H       1  UNL1        0.1488
     26 S         137.7640  142.1701  162.7678 S.O2    1  UNL1        0.0603
     27 O         137.6200  142.8234  164.1103 O.2     1  UNL1       -0.1530
     28 O         137.9081  141.5169  161.4253 O.2     1  UNL1       -0.1530
     29 C         138.0786  140.8648  163.4367 C.ar    1  UNL1        0.1226
     30 C         138.4135  139.6595  162.6089 C.ar    1  UNL1        0.0199
     31 C         138.7281  138.3543  163.2777 C.ar    1  UNL1        0.0021
     32 C         138.7078  138.2543  164.7742 C.ar    1  UNL1        0.0104
     33 C         138.3730  139.4597  165.6019 C.ar    1  UNL1        0.0698
     34 C         138.0584  140.7649  164.9331 C.ar    1  UNL1        0.0302
     35 C         138.3527  139.3597  167.0985 C.1     1  UNL1        0.1005
     36 N         138.3325  139.2597  168.5950 N.1     1  UNL1       -0.1908
@<TRIPOS>BOND
     1    20    21    3
     2    21    14    1
     3    14    15   ar
     4    15    16   ar
     5    16    17   ar
     6    17    13    1
     7    13    12    1
     8    12    11    1
     9    11    10    1
    10    10     1    1
    11     1     2    1
    12     2     3    1
    13     3     4    1
    14     4     5    1
    15     5    22    1
    16    22    23    1
    17    23    24    1
    18    24    26    1
    19    26    27    2
    20    26    28    2
    21    26    29    1
    22    29    30   ar
    23    30    31   ar
    24    31    32   ar
    25    32    33   ar
    26    33    35    1
    27    35    36    3
    28    33    34   ar
    29     5     6    1
    30     6     7    1
    31     7     8    1
    32     7     9    1
    33    17    18   ar
    34    18    19   ar
    35    19    14   ar
    36     8     1    1
    37     9     3    1
    38    34    29   ar
    39    24    25    1
@<TRIPOS>MOLECULE
*****
 36 39 0 0 0
SMALL
GASTEIGER

@<TRIPOS>ATOM
      1 N         138.9473  138.9631  162.4748 N.3     1  UNL1       -0.2684
      2 C         137.8713  140.0010  162.3536 C.3     1  UNL1        0.1035
      3 C         138.1280  141.2608  161.5810 C.3     1  UNL1        0.1470
      4 C         138.3847  142.5206  160.8083 C.3     1  UNL1        0.1035
      5 N         139.7175  142.7425  160.1568 N.3     1  UNL1       -0.2673
      6 C         140.7936  141.7044  160.2779 C.3     1  UNL1        0.1035
      7 C         140.5369  140.4447  161.0506 C.3     1  UNL1        0.1470
      8 C         140.2801  139.1849  161.8232 C.3     1  UNL1        0.1035
      9 O         139.4608  141.4826  160.9295 O.3     1  UNL1       -0.3530
     10 C         138.6906  137.7032  163.2474 C.3     1  UNL1        0.0761
     11 C         139.1167  137.6034  164.6822 C.3     1  UNL1        0.0646
     12 C         138.4981  138.5012  165.7125 C.3     1  UNL1        0.2068
     13 O         138.6864  139.9866  165.6230 O.3     1  UNL1       -0.4754
     14 C         141.2234  142.1203  168.6662 C.ar    1  UNL1        0.0686
     15 C         140.7477  142.8477  167.4437 C.ar    1  UNL1        0.0134
     16 C         139.9021  142.1365  166.4293 C.ar    1  UNL1        0.0376
     17 C         139.5321  140.6978  166.6374 C.ar    1  UNL1        0.1386
     18 C         140.0078  139.9703  167.8599 C.ar    1  UNL1        0.0376
     19 C         140.8535  140.6816  168.8743 C.ar    1  UNL1        0.0134
     20 N         142.9148  143.5427  170.6950 N.1     1  UNL1       -0.1908
     21 C         142.0691  142.8315  169.6805 C.1     1  UNL1        0.1004
     22 C         139.9743  144.0022  159.3841 C.3     1  UNL1        0.0913
     23 C         141.0972  144.9124  159.7852 C.3     1  UNL1        0.1087
     24 N         141.1569  145.4600  161.1803 N.3     1  UNL1       -0.1780
     25 H         140.1929  145.5716  161.4944 H       1  UNL1        0.1488
     26 S         141.8769  144.6997  162.2542 S.O2    1  UNL1        0.0603
     27 O         142.9625  144.3511  161.2796 O.2     1  UNL1       -0.1530
     28 O         140.7913  145.0482  163.2289 O.2     1  UNL1       -0.1530
     29 C         142.5969  143.9393  163.3283 C.ar    1  UNL1        0.1226
     30 C         143.6142  144.6330  164.1849 C.ar    1  UNL1        0.0199
     31 C         144.3342  143.8727  165.2589 C.ar    1  UNL1        0.0021
     32 C         144.0369  142.4187  165.4762 C.ar    1  UNL1        0.0104
     33 C         143.0196  141.7249  164.6196 C.ar    1  UNL1        0.0698
     34 C         142.2996  142.4852  163.5456 C.ar    1  UNL1        0.0302
     35 C         142.7223  140.2708  164.8370 C.1     1  UNL1        0.1005
     36 N         142.4250  138.8167  165.0545 N.1     1  UNL1       -0.1908
@<TRIPOS>BOND
     1    20    21    3
     2    21    14    1
     3    14    15   ar
     4    15    16   ar
     5    16    17   ar
     6    17    13    1
     7    13    12    1
     8    12    11    1
     9    11    10    1
    10    10     1    1
    11     1     2    1
    12     2     3    1
    13     3     4    1
    14     4     5    1
    15     5    22    1
    16    22    23    1
    17    23    24    1
    18    24    26    1
    19    26    27    2
    20    26    28    2
    21    26    29    1
    22    29    30   ar
    23    30    31   ar
    24    31    32   ar
    25    32    33   ar
    26    33    35    1
    27    35    36    3
    28    33    34   ar
    29     5     6    1
    30     6     7    1
    31     7     8    1
    32     7     9    1
    33    17    18   ar
    34    18    19   ar
    35    19    14   ar
    36     8     1    1
    37     9     3    1
    38    34    29   ar
    39    24    25    1
@<TRIPOS>MOLECULE
*****
 36 39 0 0 0
SMALL
GASTEIGER

@<TRIPOS>ATOM
      1 N         141.8634  144.5608  160.2527 N.3     1  UNL1       -0.2684
      2 C         142.8416  143.6215  159.6117 C.3     1  UNL1        0.1035
      3 C         143.7948  142.8358  160.4627 C.3     1  UNL1        0.1470
      4 C         144.7480  142.0500  161.3136 C.3     1  UNL1        0.1035
      5 N         144.7229  142.2036  162.8055 N.3     1  UNL1       -0.2673
      6 C         143.7446  143.1429  163.4465 C.3     1  UNL1        0.1035
      7 C         142.7915  143.9286  162.5956 C.3     1  UNL1        0.1470
      8 C         141.8384  144.7143  161.7446 C.3     1  UNL1        0.1035
      9 O         143.7697  142.9893  161.9546 O.3     1  UNL1       -0.3530
     10 C         140.9102  145.3465  159.4017 C.3     1  UNL1        0.0761
     11 C         139.9174  144.6329  158.5328 C.3     1  UNL1        0.0646
     12 C         139.4146  143.2758  158.9272 C.3     1  UNL1        0.2068
     13 O         138.3195  143.1481  159.9442 O.3     1  UNL1       -0.4754
     14 C         139.3283  142.2413  164.2349 C.ar    1  UNL1        0.0686
     15 C         138.2630  143.2464  163.9112 C.ar    1  UNL1        0.0134
     16 C         137.9267  143.5487  162.4810 C.ar    1  UNL1        0.0376
     17 C         138.6557  142.8458  161.3744 C.ar    1  UNL1        0.1386
     18 C         139.7211  141.8407  161.6981 C.ar    1  UNL1        0.0376
     19 C         140.0573  141.5384  163.1284 C.ar    1  UNL1        0.0134
     20 N         140.0009  141.6367  167.0954 N.1     1  UNL1       -0.1908
     21 C         139.6646  141.9390  165.6651 C.1     1  UNL1        0.1004
     22 C         145.6760  141.4179  163.6565 C.3     1  UNL1        0.0913
     23 C         145.1999  140.1944  164.3822 C.3     1  UNL1        0.1087
     24 N         144.6853  139.0166  163.6091 N.3     1  UNL1       -0.1780
     25 H         145.1288  138.1878  164.0053 H       1  UNL1        0.1488
     26 S         143.2123  138.7376  163.5596 S.O2    1  UNL1        0.0603
     27 O         143.2272  138.3999  165.0210 O.2     1  UNL1       -0.1530
     28 O         143.1975  139.0753  162.0983 O.2     1  UNL1       -0.1530
     29 C         141.7393  138.4586  163.5101 C.ar    1  UNL1        0.1226
     30 C         141.0885  138.0933  162.2089 C.ar    1  UNL1        0.0199
     31 C         139.6156  137.8143  162.1593 C.ar    1  UNL1        0.0021
     32 C         138.7934  137.9007  163.4109 C.ar    1  UNL1        0.0104
     33 C         139.4441  138.2660  164.7121 C.ar    1  UNL1        0.0698
     34 C         140.9171  138.5450  164.7617 C.ar    1  UNL1        0.0302
     35 C         138.6218  138.3523  165.9637 C.1     1  UNL1        0.1005
     36 N         137.7996  138.4386  167.2152 N.1     1  UNL1       -0.1908
@<TRIPOS>BOND
     1    20    21    3
     2    21    14    1
     3    14    15   ar
     4    15    16   ar
     5    16    17   ar
     6    17    13    1
     7    13    12    1
     8    12    11    1
     9    11    10    1
    10    10     1    1
    11     1     2    1
    12     2     3    1
    13     3     4    1
    14     4     5    1
    15     5    22    1
    16    22    23    1
    17    23    24    1
    18    24    26    1
    19    26    27    2
    20    26    28    2
    21    26    29    1
    22    29    30   ar
    23    30    31   ar
    24    31    32   ar
    25    32    33   ar
    26    33    35    1
    27    35    36    3
    28    33    34   ar
    29     5     6    1
    30     6     7    1
    31     7     8    1
    32     7     9    1
    33    17    18   ar
    34    18    19   ar
    35    19    14   ar
    36     8     1    1
    37     9     3    1
    38    34    29   ar
    39    24    25    1
@<TRIPOS>MOLECULE
*****
 36 39 0 0 0
SMALL
GASTEIGER

@<TRIPOS>ATOM
      1 N         140.8784  139.9554  159.5272 N.3     1  UNL1       -0.2684
      2 C         141.2453  141.4088  159.5822 C.3     1  UNL1        0.1035
      3 C         142.4161  141.8560  160.4063 C.3     1  UNL1        0.1470
      4 C         143.5869  142.3033  161.2305 C.3     1  UNL1        0.1035
      5 N         144.3908  141.2972  161.9997 N.3     1  UNL1       -0.2673
      6 C         144.0238  139.8438  161.9446 C.3     1  UNL1        0.1035
      7 C         142.8530  139.3965  161.1205 C.3     1  UNL1        0.1470
      8 C         141.6822  138.9493  160.2964 C.3     1  UNL1        0.1035
      9 O         143.2199  140.8499  161.1755 O.3     1  UNL1       -0.3530
     10 C         139.7076  139.5081  158.7031 C.3     1  UNL1        0.0761
     11 C         138.3575  140.1240  158.9217 C.3     1  UNL1        0.0646
     12 C         137.6695  139.9725  160.2461 C.3     1  UNL1        0.2068
     13 O         137.9700  138.7881  161.1161 O.3     1  UNL1       -0.4754
     14 C         138.7641  139.3662  165.5076 C.ar    1  UNL1        0.0686
     15 C         138.1848  140.4870  164.6963 C.ar    1  UNL1        0.0134
     16 C         137.9201  140.2943  163.2325 C.ar    1  UNL1        0.0376
     17 C         138.2347  138.9808  162.5799 C.ar    1  UNL1        0.1386
     18 C         138.8140  137.8600  163.3912 C.ar    1  UNL1        0.0376
     19 C         139.0787  138.0528  164.8551 C.ar    1  UNL1        0.0134
     20 N         139.2936  139.7516  168.4353 N.1     1  UNL1       -0.1908
     21 C         139.0289  139.5589  166.9714 C.1     1  UNL1        0.1004
     22 C         145.5615  141.7444  162.8238 C.3     1  UNL1        0.0913
     23 C         145.3643  142.1295  164.2601 C.3     1  UNL1        0.1087
     24 N         144.1596  141.6417  165.0087 N.3     1  UNL1       -0.1780
     25 H         144.4223  141.5986  165.9934 H       1  UNL1        0.1488
     26 S         142.8716  142.4071  164.9374 S.O2    1  UNL1        0.0603
     27 O         142.1104  141.1178  164.8465 O.2     1  UNL1       -0.1530
     28 O         143.6327  143.6964  165.0283 O.2     1  UNL1       -0.1530
     29 C         141.5835  143.1725  164.8660 C.ar    1  UNL1        0.1226
     30 C         140.5765  143.0509  165.9711 C.ar    1  UNL1        0.0199
     31 C         139.2885  143.8163  165.8998 C.ar    1  UNL1        0.0021
     32 C         139.0075  144.7034  164.7234 C.ar    1  UNL1        0.0104
     33 C         140.0144  144.8250  163.6183 C.ar    1  UNL1        0.0698
     34 C         141.3024  144.0596  163.6896 C.ar    1  UNL1        0.0302
     35 C         139.7333  145.7122  162.4418 C.1     1  UNL1        0.1005
     36 N         139.4522  146.5993  161.2654 N.1     1  UNL1       -0.1908
@<TRIPOS>BOND
     1    20    21    3
     2    21    14    1
     3    14    15   ar
     4    15    16   ar
     5    16    17   ar
     6    17    13    1
     7    13    12    1
     8    12    11    1
     9    11    10    1
    10    10     1    1
    11     1     2    1
    12     2     3    1
    13     3     4    1
    14     4     5    1
    15     5    22    1
    16    22    23    1
    17    23    24    1
    18    24    26    1
    19    26    27    2
    20    26    28    2
    21    26    29    1
    22    29    30   ar
    23    30    31   ar
    24    31    32   ar
    25    32    33   ar
    26    33    35    1
    27    35    36    3
    28    33    34   ar
    29     5     6    1
    30     6     7    1
    31     7     8    1
    32     7     9    1
    33    17    18   ar
    34    18    19   ar
    35    19    14   ar
    36     8     1    1
    37     9     3    1
    38    34    29   ar
    39    24    25    1
@<TRIPOS>MOLECULE
*****
 36 39 0 0 0
SMALL
GASTEIGER

@<TRIPOS>ATOM
      1 N         144.3338  141.8289  163.5313 N.3     1  UNL1       -0.2684
      2 C         143.9159  142.9517  164.4338 C.3     1  UNL1        0.1035
      3 C         142.8419  143.9039  163.9982 C.3     1  UNL1        0.1470
      4 C         141.7678  144.8562  163.5627 C.3     1  UNL1        0.1035
      5 N         141.1117  144.6855  162.2246 N.3     1  UNL1       -0.2673
      6 C         141.5296  143.5625  161.3222 C.3     1  UNL1        0.1035
      7 C         142.6036  142.6103  161.7577 C.3     1  UNL1        0.1470
      8 C         143.6776  141.6582  162.1933 C.3     1  UNL1        0.1035
      9 O         142.1858  143.7332  162.6602 O.3     1  UNL1       -0.3530
     10 C         145.4079  140.8766  163.9669 C.3     1  UNL1        0.0761
     11 C         145.0935  139.4204  164.1413 C.3     1  UNL1        0.0646
     12 C         144.1781  138.9776  165.2441 C.3     1  UNL1        0.2068
     13 O         142.8052  139.5701  165.3625 O.3     1  UNL1       -0.4754
     14 C         141.3675  141.1420  169.3264 C.ar    1  UNL1        0.0686
     15 C         140.9996  141.8547  168.0589 C.ar    1  UNL1        0.0134
     16 C         141.4788  141.3308  166.7376 C.ar    1  UNL1        0.0376
     17 C         142.3260  140.0941  166.6838 C.ar    1  UNL1        0.1386
     18 C         142.6939  139.3813  167.9513 C.ar    1  UNL1        0.0376
     19 C         142.2146  139.9053  169.2727 C.ar    1  UNL1        0.0134
     20 N         140.4090  142.1898  171.9690 N.1     1  UNL1       -0.1908
     21 C         140.8882  141.6659  170.6476 C.1     1  UNL1        0.1004
     22 C         140.0376  145.6377  161.7891 C.3     1  UNL1        0.0913
     23 C         138.7074  145.6358  162.4822 C.3     1  UNL1        0.1087
     24 N         137.7759  144.4721  162.3144 N.3     1  UNL1       -0.1780
     25 H         137.6490  144.3388  161.3111 H       1  UNL1        0.1488
     26 S         138.1372  143.1336  162.8869 S.O2    1  UNL1        0.0603
     27 O         138.1563  142.5482  161.5060 O.2     1  UNL1       -0.1530
     28 O         138.1181  143.7190  164.2677 O.2     1  UNL1       -0.1530
     29 C         138.4986  141.7950  163.4594 C.ar    1  UNL1        0.1226
     30 C         137.9837  141.3931  164.8097 C.ar    1  UNL1        0.0199
     31 C         138.3450  140.0547  165.3823 C.ar    1  UNL1        0.0021
     32 C         139.2212  139.1181  164.6045 C.ar    1  UNL1        0.0104
     33 C         139.7361  139.5199  163.2542 C.ar    1  UNL1        0.0698
     34 C         139.3748  140.8584  162.6816 C.ar    1  UNL1        0.0302
     35 C         140.6123  138.5833  162.4764 C.1     1  UNL1        0.1005
     36 N         141.4886  137.6466  161.6987 N.1     1  UNL1       -0.1908
@<TRIPOS>BOND
     1    20    21    3
     2    21    14    1
     3    14    15   ar
     4    15    16   ar
     5    16    17   ar
     6    17    13    1
     7    13    12    1
     8    12    11    1
     9    11    10    1
    10    10     1    1
    11     1     2    1
    12     2     3    1
    13     3     4    1
    14     4     5    1
    15     5    22    1
    16    22    23    1
    17    23    24    1
    18    24    26    1
    19    26    27    2
    20    26    28    2
    21    26    29    1
    22    29    30   ar
    23    30    31   ar
    24    31    32   ar
    25    32    33   ar
    26    33    35    1
    27    35    36    3
    28    33    34   ar
    29     5     6    1
    30     6     7    1
    31     7     8    1
    32     7     9    1
    33    17    18   ar
    34    18    19   ar
    35    19    14   ar
    36     8     1    1
    37     9     3    1
    38    34    29   ar
    39    24    25    1
@<TRIPOS>MOLECULE
*****
 36 39 0 0 0
SMALL
GASTEIGER

@<TRIPOS>ATOM
      1 N         139.2113  144.5182  161.8515 N.3     1  UNL1       -0.2684
      2 C         139.5779  143.7151  160.6389 C.3     1  UNL1        0.1035
      3 C         139.0872  142.3048  160.4969 C.3     1  UNL1        0.1470
      4 C         138.5965  140.8944  160.3548 C.3     1  UNL1        0.1035
      5 N         137.7392  140.2872  161.4254 N.3     1  UNL1       -0.2673
      6 C         137.3726  141.0904  162.6382 C.3     1  UNL1        0.1035
      7 C         137.8633  142.5007  162.7802 C.3     1  UNL1        0.1470
      8 C         138.3540  143.9109  162.9222 C.3     1  UNL1        0.1035
      9 O         138.2299  141.6976  161.5675 O.3     1  UNL1       -0.3530
     10 C         139.7020  145.9285  161.9936 C.3     1  UNL1        0.0761
     11 C         140.7505  146.2586  163.0143 C.3     1  UNL1        0.0646
     12 C         141.9212  145.3416  163.2105 C.3     1  UNL1        0.2068
     13 O         141.7067  143.8596  163.2979 O.3     1  UNL1       -0.4754
     14 C         142.4997  141.6956  167.1628 C.ar    1  UNL1        0.0686
     15 C         141.1793  141.5336  166.4698 C.ar    1  UNL1        0.0134
     16 C         140.9150  142.2549  165.1816 C.ar    1  UNL1        0.0376
     17 C         141.9711  143.1383  164.5862 C.ar    1  UNL1        0.1386
     18 C         143.2915  143.3003  165.2792 C.ar    1  UNL1        0.0376
     19 C         143.5558  142.5789  166.5676 C.ar    1  UNL1        0.0134
     20 N         143.0284  140.2528  169.7395 N.1     1  UNL1       -0.1908
     21 C         142.7641  140.9742  168.4511 C.1     1  UNL1        0.1004
     22 C         137.2485  138.8769  161.2834 C.3     1  UNL1        0.0913
     23 C         138.0395  137.7449  161.8692 C.3     1  UNL1        0.1087
     24 N         139.4744  137.5510  161.4773 N.3     1  UNL1       -0.1780
     25 H         139.6195  138.0823  160.6188 H       1  UNL1        0.1488
     26 S         140.5699  137.9472  162.4221 S.O2    1  UNL1        0.0603
     27 O         141.4731  138.2266  161.2577 O.2     1  UNL1       -0.1530
     28 O         139.6667  137.6677  163.5866 O.2     1  UNL1       -0.1530
     29 C         141.6655  138.3434  163.3671 C.ar    1  UNL1        0.1226
     30 C         141.6982  137.7788  164.7564 C.ar    1  UNL1        0.0199
     31 C         142.7938  138.1749  165.7013 C.ar    1  UNL1        0.0021
     32 C         143.8565  139.1356  165.2569 C.ar    1  UNL1        0.0104
     33 C         143.8238  139.7002  163.8676 C.ar    1  UNL1        0.0698
     34 C         142.7283  139.3040  162.9227 C.ar    1  UNL1        0.0302
     35 C         144.8866  140.6609  163.4232 C.1     1  UNL1        0.1005
     36 N         145.9494  141.6216  162.9788 N.1     1  UNL1       -0.1908
@<TRIPOS>BOND
     1    20    21    3
     2    21    14    1
     3    14    15   ar
     4    15    16   ar
     5    16    17   ar
     6    17    13    1
     7    13    12    1
     8    12    11    1
     9    11    10    1
    10    10     1    1
    11     1     2    1
    12     2     3    1
    13     3     4    1
    14     4     5    1
    15     5    22    1
    16    22    23    1
    17    23    24    1
    18    24    26    1
    19    26    27    2
    20    26    28    2
    21    26    29    1
    22    29    30   ar
    23    30    31   ar
    24    31    32   ar
    25    32    33   ar
    26    33    35    1
    27    35    36    3
    28    33    34   ar
    29     5     6    1
    30     6     7    1
    31     7     8    1
    32     7     9    1
    33    17    18   ar
    34    18    19   ar
    35    19    14   ar
    36     8     1    1
    37     9     3    1
    38    34    29   ar
    39    24    25    1
@<TRIPOS>MOLECULE
*****
 36 39 0 0 0
SMALL
GASTEIGER

@<TRIPOS>ATOM
      1 N         140.8288  140.3102  167.1253 N.3     1  UNL1       -0.2684
      2 C         141.5797  139.2252  166.4120 C.3     1  UNL1        0.1035
      3 C         142.7850  139.5653  165.5864 C.3     1  UNL1        0.1470
      4 C         143.9903  139.9054  164.7608 C.3     1  UNL1        0.1035
      5 N         144.4448  141.3305  164.6487 N.3     1  UNL1       -0.2673
      6 C         143.6938  142.4155  165.3621 C.3     1  UNL1        0.1035
      7 C         142.4885  142.0754  166.1876 C.3     1  UNL1        0.1470
      8 C         141.2832  141.7353  167.0132 C.3     1  UNL1        0.1035
      9 O         143.2394  140.9904  165.4743 O.3     1  UNL1       -0.3530
     10 C         139.6235  139.9701  167.9509 C.3     1  UNL1        0.0761
     11 C         138.4777  139.2243  167.3337 C.3     1  UNL1        0.0646
     12 C         138.0171  139.5699  165.9486 C.3     1  UNL1        0.2068
     13 O         138.2927  140.9321  165.3845 O.3     1  UNL1       -0.4754
     14 C         139.3470  141.3950  161.0344 C.ar    1  UNL1        0.0686
     15 C         137.9322  141.5990  161.4890 C.ar    1  UNL1        0.0134
     16 C         137.5807  141.4447  162.9390 C.ar    1  UNL1        0.0376
     17 C         138.6441  141.0864  163.9345 C.ar    1  UNL1        0.1386
     18 C         140.0589  140.8824  163.4799 C.ar    1  UNL1        0.0376
     19 C         140.4103  141.0367  162.0297 C.ar    1  UNL1        0.0134
     20 N         140.0499  141.7036  158.1342 N.1     1  UNL1       -0.1908
     21 C         139.6984  141.5493  159.5843 C.1     1  UNL1        0.1004
     22 C         145.6500  141.6706  163.8231 C.3     1  UNL1        0.0913
     23 C         145.4988  141.9613  162.3593 C.3     1  UNL1        0.1087
     24 N         145.1405  143.3443  161.9024 N.3     1  UNL1       -0.1780
     25 H         145.4713  143.4319  160.9415 H       1  UNL1        0.1488
     26 S         143.7079  143.7889  161.9095 S.O2    1  UNL1        0.0603
     27 O         143.3359  142.6033  161.0693 O.2     1  UNL1       -0.1530
     28 O         144.0800  144.9744  162.7496 O.2     1  UNL1       -0.1530
     29 C         142.2753  144.2335  161.9165 C.ar    1  UNL1        0.1226
     30 C         141.5945  144.5905  160.6285 C.ar    1  UNL1        0.0199
     31 C         140.1619  145.0351  160.6356 C.ar    1  UNL1        0.0021
     32 C         139.4102  145.1227  161.9306 C.ar    1  UNL1        0.0104
     33 C         140.0911  144.7657  163.2186 C.ar    1  UNL1        0.0698
     34 C         141.5236  144.3211  163.2116 C.ar    1  UNL1        0.0302
     35 C         139.3393  144.8533  164.5137 C.1     1  UNL1        0.1005
     36 N         138.5875  144.9410  165.8088 N.1     1  UNL1       -0.1908
@<TRIPOS>BOND
     1    20    21    3
     2    21    14    1
     3    14    15   ar
     4    15    16   ar
     5    16    17   ar
     6    17    13    1
     7    13    12    1
     8    12    11    1
     9    11    10    1
    10    10     1    1
    11     1     2    1
    12     2     3    1
    13     3     4    1
    14     4     5    1
    15     5    22    1
    16    22    23    1
    17    23    24    1
    18    24    26    1
    19    26    27    2
    20    26    28    2
    21    26    29    1
    22    29    30   ar
    23    30    31   ar
    24    31    32   ar
    25    32    33   ar
    26    33    35    1
    27    35    36    3
    28    33    34   ar
    29     5     6    1
    30     6     7    1
    31     7     8    1
    32     7     9    1
    33    17    18   ar
    34    18    19   ar
    35    19    14   ar
    36     8     1    1
    37     9     3    1
    38    34    29   ar
    39    24    25    1
@<TRIPOS>MOLECULE
*****
 36 39 0 0 0
SMALL
GASTEIGER

@<TRIPOS>ATOM
      1 N         139.0920  138.2241  164.7344 N.3     1  UNL1       -0.2684
      2 C         140.4521  137.5922  164.7600 C.3     1  UNL1        0.1035
      3 C         141.2981  137.5828  163.5214 C.3     1  UNL1        0.1470
      4 C         142.1441  137.5734  162.2827 C.3     1  UNL1        0.1035
      5 N         141.6299  138.1959  161.0186 N.3     1  UNL1       -0.2673
      6 C         140.2697  138.8278  160.9930 C.3     1  UNL1        0.1035
      7 C         139.4238  138.8372  162.2316 C.3     1  UNL1        0.1470
      8 C         138.5778  138.8466  163.4703 C.3     1  UNL1        0.1035
      9 O         140.7839  138.2053  162.2572 O.3     1  UNL1       -0.3530
     10 C         138.2459  138.2335  165.9731 C.3     1  UNL1        0.0761
     11 C         138.3757  139.3543  166.9615 C.3     1  UNL1        0.0646
     12 C         139.7301  139.9040  167.2985 C.3     1  UNL1        0.2068
     13 O         139.9503  141.3874  167.3320 O.3     1  UNL1       -0.4754
     14 C         139.8259  143.7671  163.5148 C.ar    1  UNL1        0.0686
     15 C         140.2076  142.3169  163.4824 C.ar    1  UNL1        0.0134
     16 C         140.2490  141.5236  164.7547 C.ar    1  UNL1        0.0376
     17 C         139.9088  142.1806  166.0596 C.ar    1  UNL1        0.1386
     18 C         139.5271  143.6309  166.0921 C.ar    1  UNL1        0.0376
     19 C         139.4857  144.4241  164.8196 C.ar    1  UNL1        0.0134
     20 N         139.7429  145.3537  160.9700 N.1     1  UNL1       -0.1908
     21 C         139.7844  144.5604  162.2424 C.1     1  UNL1        0.1004
     22 C         142.4759  138.1865  159.7799 C.3     1  UNL1        0.0913
     23 C         143.5524  139.2153  159.5991 C.3     1  UNL1        0.1087
     24 N         144.4900  139.5262  160.7279 N.3     1  UNL1       -0.1780
     25 H         145.4134  139.6595  160.3156 H       1  UNL1        0.1488
     26 S         144.2345  140.7120  161.6102 S.O2    1  UNL1        0.0603
     27 O         144.7345  139.9388  162.7943 O.2     1  UNL1       -0.1530
     28 O         143.7344  141.4852  160.4261 O.2     1  UNL1       -0.1530
     29 C         143.9789  141.8980  162.4924 C.ar    1  UNL1        0.1226
     30 C         143.8076  143.2598  161.8874 C.ar    1  UNL1        0.0199
     31 C         143.5520  144.4457  162.7696 C.ar    1  UNL1        0.0021
     32 C         143.4677  144.2697  164.2568 C.ar    1  UNL1        0.0104
     33 C         143.6390  142.9079  164.8618 C.ar    1  UNL1        0.0698
     34 C         143.8946  141.7220  163.9797 C.ar    1  UNL1        0.0302
     35 C         143.5548  142.7320  166.3492 C.1     1  UNL1        0.1005
     36 N         143.4705  142.5562  167.8364 N.1     1  UNL1       -0.1908
@<TRIPOS>BOND
     1    20    21    3
     2    21    14    1
     3    14    15   ar
     4    15    16   ar
     5    16    17   ar
     6    17    13    1
     7    13    12    1
     8    12    11    1
     9    11    10    1
    10    10     1    1
    11     1     2    1
    12     2     3    1
    13     3     4    1
    14     4     5    1
    15     5    22    1
    16    22    23    1
    17    23    24    1
    18    24    26    1
    19    26    27    2
    20    26    28    2
    21    26    29    1
    22    29    30   ar
    23    30    31   ar
    24    31    32   ar
    25    32    33   ar
    26    33    35    1
    27    35    36    3
    28    33    34   ar
    29     5     6    1
    30     6     7    1
    31     7     8    1
    32     7     9    1
    33    17    18   ar
    34    18    19   ar
    35    19    14   ar
    36     8     1    1
    37     9     3    1
    38    34    29   ar
    39    24    25    1
@<TRIPOS>MOLECULE
*****
 36 39 0 0 0
SMALL
GASTEIGER

@<TRIPOS>ATOM
      1 N         144.6596  141.6847  163.1878 N.3     1  UNL1       -0.2684
      2 C         144.6597  141.3395  161.7281 C.3     1  UNL1        0.1035
      3 C         143.8774  142.1761  160.7595 C.3     1  UNL1        0.1470
      4 C         143.0951  143.0127  159.7909 C.3     1  UNL1        0.1035
      5 N         142.3127  144.1945  160.2821 N.3     1  UNL1       -0.2673
      6 C         142.3127  144.5397  161.7419 C.3     1  UNL1        0.1035
      7 C         143.0950  143.7031  162.7104 C.3     1  UNL1        0.1470
      8 C         143.8773  142.8665  163.6789 C.3     1  UNL1        0.1035
      9 O         143.0950  143.3579  161.2507 O.3     1  UNL1       -0.3530
     10 C         145.4419  140.8481  164.1564 C.3     1  UNL1        0.0761
     11 C         145.0190  139.4374  164.4410 C.3     1  UNL1        0.0646
     12 C         143.8317  139.1731  165.3189 C.3     1  UNL1        0.2068
     13 O         142.5797  139.9819  165.1508 O.3     1  UNL1       -0.4754
     14 C         140.6395  141.8952  168.7320 C.ar    1  UNL1        0.0686
     15 C         141.2231  140.5177  168.8417 C.ar    1  UNL1        0.0134
     16 C         141.8699  139.8800  167.6480 C.ar    1  UNL1        0.0376
     17 C         141.9330  140.6197  166.3445 C.ar    1  UNL1        0.1386
     18 C         141.3493  141.9971  166.2348 C.ar    1  UNL1        0.0376
     19 C         140.7025  142.6348  167.4286 C.ar    1  UNL1        0.0134
     20 N         139.3460  143.1708  171.1194 N.1     1  UNL1       -0.1908
     21 C         139.9927  142.5329  169.9257 C.1     1  UNL1        0.1004
     22 C         141.5304  145.0311  159.3136 C.3     1  UNL1        0.0913
     23 C         140.0310  144.9922  159.3295 C.3     1  UNL1        0.1087
     24 N         139.3156  143.6756  159.3988 N.3     1  UNL1       -0.1780
     25 H         139.8766  143.0075  158.8703 H       1  UNL1        0.1488
     26 S         139.0318  143.0455  160.7300 S.O2    1  UNL1        0.0603
     27 O         138.7998  144.4034  161.3234 O.2     1  UNL1       -0.1530
     28 O         139.2638  141.6875  160.1367 O.2     1  UNL1       -0.1530
     29 C         138.7480  142.4152  162.0614 C.ar    1  UNL1        0.1226
     30 C         137.9529  143.1625  163.0906 C.ar    1  UNL1        0.0199
     31 C         137.6691  142.5324  164.4219 C.ar    1  UNL1        0.0021
     32 C         138.1804  141.1549  164.7239 C.ar    1  UNL1        0.0104
     33 C         138.9755  140.4077  163.6946 C.ar    1  UNL1        0.0698
     34 C         139.2593  141.0378  162.3634 C.ar    1  UNL1        0.0302
     35 C         139.4868  139.0302  163.9967 C.1     1  UNL1        0.1005
     36 N         139.9981  137.6528  164.2988 N.1     1  UNL1       -0.1908
@<TRIPOS>BOND
     1    20    21    3
     2    21    14    1
     3    14    15   ar
     4    15    16   ar
     5    16    17   ar
     6    17    13    1
     7    13    12    1
     8    12    11    1
     9    11    10    1
    10    10     1    1
    11     1     2    1
    12     2     3    1
    13     3     4    1
    14     4     5    1
    15     5    22    1
    16    22    23    1
    17    23    24    1
    18    24    26    1
    19    26    27    2
    20    26    28    2
    21    26    29    1
    22    29    30   ar
    23    30    31   ar
    24    31    32   ar
    25    32    33   ar
    26    33    35    1
    27    35    36    3
    28    33    34   ar
    29     5     6    1
    30     6     7    1
    31     7     8    1
    32     7     9    1
    33    17    18   ar
    34    18    19   ar
    35    19    14   ar
    36     8     1    1
    37     9     3    1
    38    34    29   ar
    39    24    25    1
