@<TRIPOS>MOLECULE
*****
 35 39 0 0 0
SMALL
GASTEIGER

@<TRIPOS>ATOM
      1 C         143.6063  141.1118  160.7067 C.ar    1  UNL1        0.0960
      2 C         144.1789  140.4494  161.9246 C.ar    1  UNL1        0.1183
      3 N         143.4236  140.9470  163.1212 N.ar    1  UNL1       -0.2055
      4 N         143.5480  140.6422  164.5846 N.ar    1  UNL1       -0.1440
      5 C         142.6329  141.3074  165.5696 C.ar    1  UNL1        0.1864
      6 N         141.5936  142.2773  165.0913 N.ar    1  UNL1       -0.2070
      7 C         141.4692  142.5821  163.6279 C.ar    1  UNL1        0.1697
      8 C         142.3842  141.9170  162.6428 C.ar    1  UNL1        0.1957
      9 N         142.4971  142.0188  161.1506 N.ar    1  UNL1       -0.2256
     10 C         142.7573  141.0025  167.0331 C.ar    1  UNL1        0.0759
     11 C         142.6841  139.5831  167.5125 C.ar    1  UNL1        0.1064
     12 N         142.8085  139.2783  168.9759 N.ar    1  UNL1       -0.2123
     13 C         143.0061  140.3929  169.9600 C.ar    1  UNL1        0.2137
     14 N         143.1305  140.0881  171.4234 N.pl3   1  UNL1       -0.3274
     15 N         143.0793  141.8124  169.4807 N.ar    1  UNL1       -0.2123
     16 C         142.9549  142.1172  168.0173 C.ar    1  UNL1        0.1064
     17 H         143.0824  139.1564  171.7379 H       1  UNL1        0.1452
     18 H         143.2602  140.8196  172.0693 H       1  UNL1        0.1452
     19 N         140.4298  143.5520  163.1495 N.pl3   1  UNL1       -0.2856
     20 C         140.8465  144.8313  162.4862 C.3     1  UNL1        0.1243
     21 C         139.8071  145.8012  162.0078 C.3     1  UNL1        0.1636
     22 O         138.3510  145.4920  162.1928 O.3     1  UNL1       -0.3501
     23 C         137.9343  144.2128  162.8561 C.3     1  UNL1        0.1636
     24 C         138.9737  143.2428  163.3345 C.3     1  UNL1        0.1243
     25 C         144.0628  140.9038  159.2930 C.3     1  UNL1        0.1204
     26 N         142.7522  137.2478  157.0202 N.3     1  UNL1       -0.1565
     27 C         143.3022  138.4323  156.2825 C.3     1  UNL1        0.1128
     28 C         143.7391  139.6510  157.0402 C.3     1  UNL1        0.0918
     29 N         143.6259  139.6851  158.5355 N.3     1  UNL1       -0.2651
     30 C         143.0759  138.5005  159.2732 C.3     1  UNL1        0.0918
     31 C         142.6390  137.2819  158.5156 C.3     1  UNL1        0.1128
     32 C         141.8783  134.8104  155.5051 C.3     1  UNL1        0.1960
     33 S         142.3153  136.0291  156.2627 S.O2    1  UNL1        0.0457
     34 O         143.7074  135.4770  156.3480 O.2     1  UNL1       -0.1572
     35 O         140.9232  136.5811  156.1774 O.2     1  UNL1       -0.1572
@<TRIPOS>BOND
     1    32    33    1
     2    33    34    2
     3    33    35    2
     4    33    26    1
     5    26    27    1
     6    27    28    1
     7    28    29    1
     8    29    25    1
     9    25     1    1
    10     1     2   ar
    11     2     3   ar
    12     3     4   ar
    13     4     5   ar
    14     5    10    1
    15    10    11   ar
    16    11    12   ar
    17    12    13   ar
    18    13    14    1
    19    13    15   ar
    20    15    16   ar
    21     5     6   ar
    22     6     7   ar
    23     7    19    1
    24    19    20    1
    25    20    21    1
    26    21    22    1
    27    22    23    1
    28    23    24    1
    29     7     8   ar
    30     8     9   ar
    31    29    30    1
    32    30    31    1
    33    31    26    1
    34     9     1   ar
    35     8     3   ar
    36    16    10   ar
    37    24    19    1
    38    14    17    1
    39    14    18    1
@<TRIPOS>MOLECULE
*****
 35 39 0 0 0
SMALL
GASTEIGER

@<TRIPOS>ATOM
      1 C         142.7927  142.8834  160.7146 C.ar    1  UNL1        0.0960
      2 C         143.3662  143.4368  161.9854 C.ar    1  UNL1        0.1183
      3 N         142.6406  142.8039  163.1356 N.ar    1  UNL1       -0.2055
      4 N         142.7784  142.9657  164.6204 N.ar    1  UNL1       -0.1440
      5 C         141.8942  142.1829  165.5454 C.ar    1  UNL1        0.1864
      6 N         140.8723  141.2385  164.9855 N.ar    1  UNL1       -0.2070
      7 C         140.7344  141.0767  163.5007 C.ar    1  UNL1        0.1697
      8 C         141.6186  141.8594  162.5757 C.ar    1  UNL1        0.1957
      9 N         141.7126  141.9086  161.0794 N.ar    1  UNL1       -0.2256
     10 C         142.0320  142.3447  167.0303 C.ar    1  UNL1        0.0759
     11 C         143.3919  142.3311  167.6632 C.ar    1  UNL1        0.1064
     12 N         143.5297  142.4928  169.1481 N.ar    1  UNL1       -0.2123
     13 C         142.3077  142.6682  170.0001 C.ar    1  UNL1        0.2137
     14 N         142.4456  142.8299  171.4849 N.pl3   1  UNL1       -0.3274
     15 N         140.9478  142.6818  169.3672 N.ar    1  UNL1       -0.2123
     16 C         140.8100  142.5200  167.8823 C.ar    1  UNL1        0.1064
     17 H         143.3381  142.8210  171.9002 H       1  UNL1        0.1452
     18 H         141.6435  142.9450  172.0441 H       1  UNL1        0.1452
     19 N         139.7124  140.1322  162.9408 N.pl3   1  UNL1       -0.2856
     20 C         139.7487  138.6800  163.3149 C.3     1  UNL1        0.1243
     21 C         138.7268  137.7356  162.7551 C.3     1  UNL1        0.1636
     22 O         137.6684  138.2432  161.8211 O.3     1  UNL1       -0.3501
     23 C         137.6321  139.6953  161.4470 C.3     1  UNL1        0.1636
     24 C         138.6541  140.6399  162.0068 C.3     1  UNL1        0.1243
     25 C         143.2236  143.2419  159.3233 C.3     1  UNL1        0.1204
     26 N         140.6043  145.8523  156.7591 N.3     1  UNL1       -0.1565
     27 C         140.3560  145.7607  158.2356 C.3     1  UNL1        0.1128
     28 C         141.2292  144.8905  159.0903 C.3     1  UNL1        0.0918
     29 N         142.3505  144.1120  158.4686 N.3     1  UNL1       -0.2651
     30 C         142.5987  144.2037  156.9920 C.3     1  UNL1        0.0918
     31 C         141.7256  145.0738  156.1374 C.3     1  UNL1        0.1128
     32 C         138.8581  147.5926  155.0497 C.3     1  UNL1        0.1960
     33 S         139.7312  146.7224  155.9043 S.O2    1  UNL1        0.0457
     34 O         140.2434  146.0300  154.6763 O.2     1  UNL1       -0.1572
     35 O         139.2190  147.4149  157.1324 O.2     1  UNL1       -0.1572
@<TRIPOS>BOND
     1    32    33    1
     2    33    34    2
     3    33    35    2
     4    33    26    1
     5    26    27    1
     6    27    28    1
     7    28    29    1
     8    29    25    1
     9    25     1    1
    10     1     2   ar
    11     2     3   ar
    12     3     4   ar
    13     4     5   ar
    14     5    10    1
    15    10    11   ar
    16    11    12   ar
    17    12    13   ar
    18    13    14    1
    19    13    15   ar
    20    15    16   ar
    21     5     6   ar
    22     6     7   ar
    23     7    19    1
    24    19    20    1
    25    20    21    1
    26    21    22    1
    27    22    23    1
    28    23    24    1
    29     7     8   ar
    30     8     9   ar
    31    29    30    1
    32    30    31    1
    33    31    26    1
    34     9     1   ar
    35     8     3   ar
    36    16    10   ar
    37    24    19    1
    38    14    17    1
    39    14    18    1
@<TRIPOS>MOLECULE
*****
 35 39 0 0 0
SMALL
GASTEIGER

@<TRIPOS>ATOM
      1 C         139.6906  139.8200  161.0473 C.ar    1  UNL1        0.0960
      2 C         139.1300  139.2337  162.3090 C.ar    1  UNL1        0.1183
      3 N         139.8224  139.8842  163.4699 N.ar    1  UNL1       -0.2055
      4 N         139.6804  139.7043  164.9522 N.ar    1  UNL1       -0.1440
      5 C         140.5269  140.5127  165.8903 C.ar    1  UNL1        0.1864
      6 N         141.5153  141.5009  165.3460 N.ar    1  UNL1       -0.2070
      7 C         141.6573  141.6808  163.8637 C.ar    1  UNL1        0.1697
      8 C         140.8108  140.8725  162.9256 C.ar    1  UNL1        0.1957
      9 N         140.7294  140.8328  161.4283 N.ar    1  UNL1       -0.2256
     10 C         140.3850  140.3328  167.3728 C.ar    1  UNL1        0.0759
     11 C         139.0597  139.9434  167.9575 C.ar    1  UNL1        0.1064
     12 N         138.9177  139.7635  169.4399 N.ar    1  UNL1       -0.2123
     13 C         140.1011  139.9729  170.3375 C.ar    1  UNL1        0.2137
     14 N         139.9591  139.7930  171.8199 N.pl3   1  UNL1       -0.3274
     15 N         141.4264  140.3623  169.7528 N.ar    1  UNL1       -0.2123
     16 C         141.5683  140.5422  168.2704 C.ar    1  UNL1        0.1064
     17 H         139.0892  139.5374  172.2036 H       1  UNL1        0.1452
     18 H         140.7357  139.9305  172.4091 H       1  UNL1        0.1452
     19 N         142.6458  142.6691  163.3194 N.pl3   1  UNL1       -0.2856
     20 C         143.6801  142.2265  162.3271 C.3     1  UNL1        0.1243
     21 C         144.6685  143.2147  161.7829 C.3     1  UNL1        0.1636
     22 O         144.6228  144.6456  162.2307 O.3     1  UNL1       -0.3501
     23 C         143.5885  145.0882  163.2229 C.3     1  UNL1        0.1636
     24 C         142.6000  144.0999  163.7672 C.3     1  UNL1        0.1243
     25 C         139.2839  139.4571  159.6498 C.3     1  UNL1        0.1204
     26 N         142.0617  137.0537  157.0503 N.3     1  UNL1       -0.1565
     27 C         142.5764  137.6971  158.3037 C.3     1  UNL1        0.1128
     28 C         141.6504  138.4983  159.1702 C.3     1  UNL1        0.0918
     29 N         140.2098  138.6560  158.7833 N.3     1  UNL1       -0.2651
     30 C         139.6951  138.0126  157.5298 C.3     1  UNL1        0.0918
     31 C         140.6211  137.2115  156.6634 C.3     1  UNL1        0.1128
     32 C         143.9135  135.4516  155.3172 C.3     1  UNL1        0.1960
     33 S         142.9876  136.2526  156.1838 S.O2    1  UNL1        0.0457
     34 O         141.9707  135.1521  156.1147 O.2     1  UNL1       -0.1572
     35 O         144.0045  137.3531  156.2528 O.2     1  UNL1       -0.1572
@<TRIPOS>BOND
     1    32    33    1
     2    33    34    2
     3    33    35    2
     4    33    26    1
     5    26    27    1
     6    27    28    1
     7    28    29    1
     8    29    25    1
     9    25     1    1
    10     1     2   ar
    11     2     3   ar
    12     3     4   ar
    13     4     5   ar
    14     5    10    1
    15    10    11   ar
    16    11    12   ar
    17    12    13   ar
    18    13    14    1
    19    13    15   ar
    20    15    16   ar
    21     5     6   ar
    22     6     7   ar
    23     7    19    1
    24    19    20    1
    25    20    21    1
    26    21    22    1
    27    22    23    1
    28    23    24    1
    29     7     8   ar
    30     8     9   ar
    31    29    30    1
    32    30    31    1
    33    31    26    1
    34     9     1   ar
    35     8     3   ar
    36    16    10   ar
    37    24    19    1
    38    14    17    1
    39    14    18    1
@<TRIPOS>MOLECULE
*****
 35 39 0 0 0
SMALL
GASTEIGER

@<TRIPOS>ATOM
      1 C         142.2462  140.0208  160.4168 C.ar    1  UNL1        0.0960
      2 C         142.8402  139.3188  161.6019 C.ar    1  UNL1        0.1183
      3 N         142.4256  140.0624  162.8368 N.ar    1  UNL1       -0.2055
      4 N         142.7124  139.8318  164.2910 N.ar    1  UNL1       -0.1440
      5 C         142.1489  140.7629  165.3234 C.ar    1  UNL1        0.1864
      6 N         141.2987  141.9244  164.9016 N.ar    1  UNL1       -0.2070
      7 C         141.0119  142.1549  163.4474 C.ar    1  UNL1        0.1697
      8 C         141.5753  141.2239  162.4151 C.ar    1  UNL1        0.1957
      9 N         141.4645  141.1982  160.9194 N.ar    1  UNL1       -0.2256
     10 C         142.4357  140.5324  166.7776 C.ar    1  UNL1        0.0759
     11 C         142.4160  141.6846  167.7378 C.ar    1  UNL1        0.1064
     12 N         142.7028  141.4540  169.1919 N.ar    1  UNL1       -0.2123
     13 C         143.0094  140.0713  169.6859 C.ar    1  UNL1        0.2137
     14 N         143.2962  139.8408  171.1400 N.pl3   1  UNL1       -0.3274
     15 N         143.0291  138.9191  168.7257 N.ar    1  UNL1       -0.2123
     16 C         142.7423  139.1496  167.2716 C.ar    1  UNL1        0.1064
     17 H         143.2832  140.5971  171.7702 H       1  UNL1        0.1452
     18 H         143.4974  138.9333  171.4643 H       1  UNL1        0.1452
     19 N         140.1616  143.3164  163.0256 N.pl3   1  UNL1       -0.2856
     20 C         138.6842  143.2976  163.2845 C.3     1  UNL1        0.1243
     21 C         137.8340  144.4590  162.8628 C.3     1  UNL1        0.1636
     22 O         138.4610  145.6395  162.1821 O.3     1  UNL1       -0.3501
     23 C         139.9384  145.6584  161.9232 C.3     1  UNL1        0.1636
     24 C         140.7887  144.4969  162.3449 C.3     1  UNL1        0.1243
     25 C         142.4059  139.6164  158.9812 C.3     1  UNL1        0.1204
     26 N         145.6318  141.4869  156.4623 N.3     1  UNL1       -0.1565
     27 C         145.2446  142.1114  157.7699 C.3     1  UNL1        0.1128
     28 C         144.1692  141.4879  158.6096 C.3     1  UNL1        0.0918
     29 N         143.4812  140.2398  158.1416 N.3     1  UNL1       -0.2651
     30 C         143.8685  139.6153  156.8339 C.3     1  UNL1        0.0918
     31 C         144.9438  140.2388  155.9943 C.3     1  UNL1        0.1128
     32 C         147.7823  142.7338  154.7829 C.3     1  UNL1        0.1960
     33 S         146.7071  142.1103  155.6226 S.O2    1  UNL1        0.0457
     34 O         147.3571  142.6554  156.8597 O.2     1  UNL1       -0.1572
     35 O         146.0571  141.5653  154.3855 O.2     1  UNL1       -0.1572
@<TRIPOS>BOND
     1    32    33    1
     2    33    34    2
     3    33    35    2
     4    33    26    1
     5    26    27    1
     6    27    28    1
     7    28    29    1
     8    29    25    1
     9    25     1    1
    10     1     2   ar
    11     2     3   ar
    12     3     4   ar
    13     4     5   ar
    14     5    10    1
    15    10    11   ar
    16    11    12   ar
    17    12    13   ar
    18    13    14    1
    19    13    15   ar
    20    15    16   ar
    21     5     6   ar
    22     6     7   ar
    23     7    19    1
    24    19    20    1
    25    20    21    1
    26    21    22    1
    27    22    23    1
    28    23    24    1
    29     7     8   ar
    30     8     9   ar
    31    29    30    1
    32    30    31    1
    33    31    26    1
    34     9     1   ar
    35     8     3   ar
    36    16    10   ar
    37    24    19    1
    38    14    17    1
    39    14    18    1
@<TRIPOS>MOLECULE
*****
 35 39 0 0 0
SMALL
GASTEIGER

@<TRIPOS>ATOM
      1 C         143.2618  140.3697  160.6930 C.ar    1  UNL1        0.0960
      2 C         143.7778  139.7053  161.9349 C.ar    1  UNL1        0.1183
      3 N         143.1551  140.3861  163.1176 N.ar    1  UNL1       -0.2055
      4 N         143.2920  140.1581  164.5938 N.ar    1  UNL1       -0.1440
      5 C         142.5280  141.0153  165.5591 C.ar    1  UNL1        0.1864
      6 N         141.6273  142.1003  165.0481 N.ar    1  UNL1       -0.2070
      7 C         141.4904  142.3283  163.5719 C.ar    1  UNL1        0.1697
      8 C         142.2543  141.4712  162.6066 C.ar    1  UNL1        0.1957
      9 N         142.3203  141.4610  161.1081 N.ar    1  UNL1       -0.2256
     10 C         142.6649  140.7873  167.0354 C.ar    1  UNL1        0.0759
     11 C         142.7746  141.9571  167.9680 C.ar    1  UNL1        0.1064
     12 N         142.9115  141.7291  169.4442 N.ar    1  UNL1       -0.2123
     13 C         142.9387  140.3313  169.9879 C.ar    1  UNL1        0.2137
     14 N         143.0756  140.1034  171.4641 N.pl3   1  UNL1       -0.3274
     15 N         142.8290  139.1616  169.0553 N.ar    1  UNL1       -0.2123
     16 C         142.6921  139.3896  167.5791 C.ar    1  UNL1        0.1064
     17 H         143.1476  140.8712  172.0761 H       1  UNL1        0.1452
     18 H         143.0934  139.1861  171.8210 H       1  UNL1        0.1452
     19 N         140.5896  143.4134  163.0610 N.pl3   1  UNL1       -0.2856
     20 C         141.1653  144.5675  162.2949 C.3     1  UNL1        0.1243
     21 C         140.2646  145.6526  161.7839 C.3     1  UNL1        0.1636
     22 O         138.7880  145.5837  162.0390 O.3     1  UNL1       -0.3501
     23 C         138.2123  144.4297  162.8050 C.3     1  UNL1        0.1636
     24 C         139.1130  143.3445  163.3160 C.3     1  UNL1        0.1243
     25 C         143.6239  140.0064  159.2834 C.3     1  UNL1        0.1204
     26 N         140.4811  138.3876  156.4991 N.3     1  UNL1       -0.1565
     27 C         141.5445  137.4782  157.0396 C.3     1  UNL1        0.1128
     28 C         142.5921  138.0179  157.9678 C.3     1  UNL1        0.0918
     29 N         142.5763  139.4669  158.3553 N.3     1  UNL1       -0.2651
     30 C         141.5128  140.3762  157.8147 C.3     1  UNL1        0.0918
     31 C         140.4653  139.8366  156.8866 C.3     1  UNL1        0.1128
     32 C         138.3859  137.3084  154.6429 C.3     1  UNL1        0.1960
     33 S         139.4335  137.8480  155.5710 S.O2    1  UNL1        0.0457
     34 O         138.4922  138.9333  156.0025 O.2     1  UNL1       -0.1572
     35 O         140.3747  136.7627  155.1395 O.2     1  UNL1       -0.1572
@<TRIPOS>BOND
     1    32    33    1
     2    33    34    2
     3    33    35    2
     4    33    26    1
     5    26    27    1
     6    27    28    1
     7    28    29    1
     8    29    25    1
     9    25     1    1
    10     1     2   ar
    11     2     3   ar
    12     3     4   ar
    13     4     5   ar
    14     5    10    1
    15    10    11   ar
    16    11    12   ar
    17    12    13   ar
    18    13    14    1
    19    13    15   ar
    20    15    16   ar
    21     5     6   ar
    22     6     7   ar
    23     7    19    1
    24    19    20    1
    25    20    21    1
    26    21    22    1
    27    22    23    1
    28    23    24    1
    29     7     8   ar
    30     8     9   ar
    31    29    30    1
    32    30    31    1
    33    31    26    1
    34     9     1   ar
    35     8     3   ar
    36    16    10   ar
    37    24    19    1
    38    14    17    1
    39    14    18    1
@<TRIPOS>MOLECULE
*****
 35 39 0 0 0
SMALL
GASTEIGER

@<TRIPOS>ATOM
      1 C         138.6670  139.0468  162.5717 C.ar    1  UNL1        0.0960
      2 C         137.9789  138.7194  161.2797 C.ar    1  UNL1        0.1183
      3 N         138.0230  139.9398  160.4088 N.ar    1  UNL1       -0.2055
      4 N         137.5042  140.2059  159.0268 N.ar    1  UNL1       -0.1440
      5 C         137.7008  141.5538  158.3985 C.ar    1  UNL1        0.1864
      6 N         138.4162  142.6354  159.1522 N.ar    1  UNL1       -0.2070
      7 C         138.9350  142.3694  160.5343 C.ar    1  UNL1        0.1697
      8 C         138.7384  141.0216  161.1626 C.ar    1  UNL1        0.1957
      9 N         139.1364  140.4696  162.4993 N.ar    1  UNL1       -0.2256
     10 C         137.1820  141.8199  157.0164 C.ar    1  UNL1        0.0759
     11 C         136.4826  140.7327  156.2556 C.ar    1  UNL1        0.1064
     12 N         135.9638  140.9988  154.8736 N.ar    1  UNL1       -0.2123
     13 C         136.1444  142.3521  154.2524 C.ar    1  UNL1        0.2137
     14 N         135.6256  142.6182  152.8704 N.pl3   1  UNL1       -0.3274
     15 N         136.8439  143.4393  155.0132 N.ar    1  UNL1       -0.2123
     16 C         137.3626  143.1732  156.3952 C.ar    1  UNL1        0.1064
     17 H         135.1665  141.9046  152.3711 H       1  UNL1        0.1452
     18 H         135.7441  143.5064  152.4626 H       1  UNL1        0.1452
     19 N         139.6504  143.4511  161.2880 N.pl3   1  UNL1       -0.2856
     20 C         138.9203  144.2505  162.3263 C.3     1  UNL1        0.1243
     21 C         139.6356  145.3322  163.0800 C.3     1  UNL1        0.1636
     22 O         141.0811  145.6146  162.7955 O.3     1  UNL1       -0.3501
     23 C         141.8112  144.8152  161.7573 C.3     1  UNL1        0.1636
     24 C         141.0958  143.7334  161.0035 C.3     1  UNL1        0.1243
     25 C         138.8530  138.1150  163.7324 C.3     1  UNL1        0.1204
     26 N         139.7519  139.7655  167.8212 N.3     1  UNL1       -0.1565
     27 C         138.3668  139.2941  167.4906 C.3     1  UNL1        0.1128
     28 C         138.0673  138.7439  166.1276 C.3     1  UNL1        0.0918
     29 N         139.1527  138.6652  165.0953 N.3     1  UNL1       -0.2651
     30 C         140.5378  139.1366  165.4260 C.3     1  UNL1        0.0918
     31 C         140.8374  139.6868  166.7889 C.3     1  UNL1        0.1128
     32 C         140.3513  140.8659  170.5469 C.3     1  UNL1        0.1960
     33 S         140.0516  140.3157  169.1841 S.O2    1  UNL1        0.0457
     34 O         138.6878  139.9012  169.6513 O.2     1  UNL1       -0.1572
     35 O         141.4154  140.7302  168.7169 O.2     1  UNL1       -0.1572
@<TRIPOS>BOND
     1    32    33    1
     2    33    34    2
     3    33    35    2
     4    33    26    1
     5    26    27    1
     6    27    28    1
     7    28    29    1
     8    29    25    1
     9    25     1    1
    10     1     2   ar
    11     2     3   ar
    12     3     4   ar
    13     4     5   ar
    14     5    10    1
    15    10    11   ar
    16    11    12   ar
    17    12    13   ar
    18    13    14    1
    19    13    15   ar
    20    15    16   ar
    21     5     6   ar
    22     6     7   ar
    23     7    19    1
    24    19    20    1
    25    20    21    1
    26    21    22    1
    27    22    23    1
    28    23    24    1
    29     7     8   ar
    30     8     9   ar
    31    29    30    1
    32    30    31    1
    33    31    26    1
    34     9     1   ar
    35     8     3   ar
    36    16    10   ar
    37    24    19    1
    38    14    17    1
    39    14    18    1
@<TRIPOS>MOLECULE
*****
 35 39 0 0 0
SMALL
GASTEIGER

@<TRIPOS>ATOM
      1 C         140.0468  144.6659  161.9833 C.ar    1  UNL1        0.0960
      2 C         140.2382  144.9400  163.4456 C.ar    1  UNL1        0.1183
      3 N         140.1439  143.6344  164.1781 N.ar    1  UNL1       -0.2055
      4 N         140.2531  143.2903  165.6340 N.ar    1  UNL1       -0.1440
      5 C         140.1126  141.8651  166.0803 C.ar    1  UNL1        0.1864
      6 N         139.8629  140.7842  165.0708 N.ar    1  UNL1       -0.2070
      7 C         139.7537  141.1283  163.6149 C.ar    1  UNL1        0.1697
      8 C         139.8942  142.5535  163.1685 C.ar    1  UNL1        0.1957
      9 N         139.8342  143.1910  161.8121 N.ar    1  UNL1       -0.2256
     10 C         140.2218  141.5208  167.5362 C.ar    1  UNL1        0.0759
     11 C         140.6903  142.5536  168.5180 C.ar    1  UNL1        0.1064
     12 N         140.7995  142.2094  169.9738 N.ar    1  UNL1       -0.2123
     13 C         140.4402  140.8324  170.4480 C.ar    1  UNL1        0.2137
     14 N         140.5494  140.4883  171.9038 N.pl3   1  UNL1       -0.3274
     15 N         139.9717  139.7997  169.4662 N.ar    1  UNL1       -0.2123
     16 C         139.8625  140.1439  168.0104 C.ar    1  UNL1        0.1064
     17 H         140.8570  141.1662  172.5481 H       1  UNL1        0.1452
     18 H         140.3136  139.5846  172.2151 H       1  UNL1        0.1452
     19 N         139.5040  140.0474  162.6053 N.pl3   1  UNL1       -0.2856
     20 C         138.1727  139.3576  162.5588 C.3     1  UNL1        0.1243
     21 C         137.9230  138.2767  161.5493 C.3     1  UNL1        0.1636
     22 O         139.0045  137.8854  160.5863 O.3     1  UNL1       -0.3501
     23 C         140.3357  138.5751  160.6329 C.3     1  UNL1        0.1636
     24 C         140.5855  139.6561  161.6424 C.3     1  UNL1        0.1243
     25 C         140.0649  145.6874  160.8850 C.3     1  UNL1        0.1204
     26 N         141.9542  144.6979  156.9225 N.3     1  UNL1       -0.1565
     27 C         140.7561  145.5987  156.9780 C.3     1  UNL1        0.1128
     28 C         140.1263  145.9285  158.2989 C.3     1  UNL1        0.0918
     29 N         140.6947  145.3576  159.5643 N.3     1  UNL1       -0.2651
     30 C         141.8928  144.4568  159.5087 C.3     1  UNL1        0.0918
     31 C         142.5226  144.1270  158.1879 C.3     1  UNL1        0.1128
     32 C         143.2138  144.0383  154.2809 C.3     1  UNL1        0.1960
     33 S         142.5840  144.3681  155.6018 S.O2    1  UNL1        0.0457
     34 O         143.3279  143.2326  156.2400 O.2     1  UNL1       -0.1572
     35 O         141.8402  145.5035  154.9635 O.2     1  UNL1       -0.1572
@<TRIPOS>BOND
     1    32    33    1
     2    33    34    2
     3    33    35    2
     4    33    26    1
     5    26    27    1
     6    27    28    1
     7    28    29    1
     8    29    25    1
     9    25     1    1
    10     1     2   ar
    11     2     3   ar
    12     3     4   ar
    13     4     5   ar
    14     5    10    1
    15    10    11   ar
    16    11    12   ar
    17    12    13   ar
    18    13    14    1
    19    13    15   ar
    20    15    16   ar
    21     5     6   ar
    22     6     7   ar
    23     7    19    1
    24    19    20    1
    25    20    21    1
    26    21    22    1
    27    22    23    1
    28    23    24    1
    29     7     8   ar
    30     8     9   ar
    31    29    30    1
    32    30    31    1
    33    31    26    1
    34     9     1   ar
    35     8     3   ar
    36    16    10   ar
    37    24    19    1
    38    14    17    1
    39    14    18    1
@<TRIPOS>MOLECULE
*****
 35 39 0 0 0
SMALL
GASTEIGER

@<TRIPOS>ATOM
      1 C         139.2929  139.7338  163.1886 C.ar    1  UNL1        0.0960
      2 C         138.4212  139.7414  161.9680 C.ar    1  UNL1        0.1183
      3 N         138.8794  140.8586  161.0782 N.ar    1  UNL1       -0.2055
      4 N         138.3942  141.3423  159.7438 N.ar    1  UNL1       -0.1440
      5 C         139.0639  142.5090  159.0802 C.ar    1  UNL1        0.1864
      6 N         140.2188  143.1919  159.7508 N.ar    1  UNL1       -0.2070
      7 C         140.7040  142.7082  161.0852 C.ar    1  UNL1        0.1697
      8 C         140.0343  141.5415  161.7489 C.ar    1  UNL1        0.1957
      9 N         140.2899  140.8463  163.0532 N.ar    1  UNL1       -0.2256
     10 C         138.5787  142.9928  157.7457 C.ar    1  UNL1        0.0759
     11 C         137.3308  142.4148  157.1469 C.ar    1  UNL1        0.1064
     12 N         136.8456  142.8986  155.8125 N.ar    1  UNL1       -0.2123
     13 C         137.6083  143.9603  155.0770 C.ar    1  UNL1        0.2137
     14 N         137.1230  144.4440  153.7427 N.pl3   1  UNL1       -0.3274
     15 N         138.8562  144.5383  155.6759 N.ar    1  UNL1       -0.2123
     16 C         139.3414  144.0546  157.0102 C.ar    1  UNL1        0.1064
     17 H         136.3040  144.0646  153.3497 H       1  UNL1        0.1452
     18 H         137.6235  145.1409  153.2599 H       1  UNL1        0.1452
     19 N         141.8589  143.3911  161.7559 N.pl3   1  UNL1       -0.2856
     20 C         141.6086  144.4942  162.7411 C.3     1  UNL1        0.1243
     21 C         142.7635  145.1771  163.4117 C.3     1  UNL1        0.1636
     22 O         144.1687  144.7569  163.0973 O.3     1  UNL1       -0.3501
     23 C         144.4190  143.6538  162.1122 C.3     1  UNL1        0.1636
     24 C         143.2641  142.9709  161.4414 C.3     1  UNL1        0.1243
     25 C         139.1864  138.7809  164.3422 C.3     1  UNL1        0.1204
     26 N         140.8661  139.9152  168.3600 N.3     1  UNL1       -0.1565
     27 C         139.3823  139.9161  168.1401 C.3     1  UNL1        0.1128
     28 C         138.8225  139.5379  166.8007 C.3     1  UNL1        0.0918
     29 N         139.7464  139.1590  165.6814 N.3     1  UNL1       -0.2651
     30 C         141.2302  139.1582  165.9014 C.3     1  UNL1        0.0918
     31 C         141.7900  139.5363  167.2407 C.3     1  UNL1        0.1128
     32 C         141.9859  140.6713  171.0384 C.3     1  UNL1        0.1960
     33 S         141.4260  140.2933  169.6992 S.O2    1  UNL1        0.0457
     34 O         142.5481  141.0244  169.0236 O.2     1  UNL1       -0.1572
     35 O         140.3040  139.5622  170.3747 O.2     1  UNL1       -0.1572
@<TRIPOS>BOND
     1    32    33    1
     2    33    34    2
     3    33    35    2
     4    33    26    1
     5    26    27    1
     6    27    28    1
     7    28    29    1
     8    29    25    1
     9    25     1    1
    10     1     2   ar
    11     2     3   ar
    12     3     4   ar
    13     4     5   ar
    14     5    10    1
    15    10    11   ar
    16    11    12   ar
    17    12    13   ar
    18    13    14    1
    19    13    15   ar
    20    15    16   ar
    21     5     6   ar
    22     6     7   ar
    23     7    19    1
    24    19    20    1
    25    20    21    1
    26    21    22    1
    27    22    23    1
    28    23    24    1
    29     7     8   ar
    30     8     9   ar
    31    29    30    1
    32    30    31    1
    33    31    26    1
    34     9     1   ar
    35     8     3   ar
    36    16    10   ar
    37    24    19    1
    38    14    17    1
    39    14    18    1
@<TRIPOS>MOLECULE
*****
 35 39 0 0 0
SMALL
GASTEIGER

@<TRIPOS>ATOM
      1 C         143.9015  139.3858  162.3560 C.ar    1  UNL1        0.0960
      2 C         144.2261  138.3006  161.3726 C.ar    1  UNL1        0.1183
      3 N         143.2033  138.3474  160.2764 N.ar    1  UNL1       -0.2055
      4 N         143.0196  137.5194  159.0392 N.ar    1  UNL1       -0.1440
      5 C         141.8790  137.8056  158.1078 C.ar    1  UNL1        0.1864
      6 N         140.9224  138.9196  158.4137 N.ar    1  UNL1       -0.2070
      7 C         141.1061  139.7475  159.6509 C.ar    1  UNL1        0.1697
      8 C         142.2466  139.4614  160.5822 C.ar    1  UNL1        0.1957
      9 N         142.6781  140.1032  161.8675 N.ar    1  UNL1       -0.2256
     10 C         141.6953  136.9776  156.8705 C.ar    1  UNL1        0.0759
     11 C         140.4566  137.1356  156.0395 C.ar    1  UNL1        0.1064
     12 N         140.2728  136.3076  154.8023 N.ar    1  UNL1       -0.2123
     13 C         141.3278  135.3217  154.3961 C.ar    1  UNL1        0.2137
     14 N         141.1440  134.4938  153.1589 N.pl3   1  UNL1       -0.3274
     15 N         142.5665  135.1637  155.2271 N.ar    1  UNL1       -0.2123
     16 C         142.7502  135.9916  156.4644 C.ar    1  UNL1        0.1064
     17 H         140.3310  134.5975  152.6135 H       1  UNL1        0.1452
     18 H         141.8364  133.8467  152.8923 H       1  UNL1        0.1452
     19 N         140.1494  140.8616  159.9567 N.pl3   1  UNL1       -0.2856
     20 C         140.2331  142.1520  159.1964 C.3     1  UNL1        0.1243
     21 C         139.2764  143.2661  159.5022 C.3     1  UNL1        0.1636
     22 O         138.2360  143.0898  160.5683 O.3     1  UNL1       -0.3501
     23 C         138.1523  141.7995  161.3286 C.3     1  UNL1        0.1636
     24 C         139.1090  140.6853  161.0228 C.3     1  UNL1        0.1243
     25 C         144.6660  139.6986  163.6080 C.3     1  UNL1        0.1204
     26 N         142.5264  139.8909  167.5622 N.3     1  UNL1       -0.1565
     27 C         143.1636  138.6084  167.1158 C.3     1  UNL1        0.1128
     28 C         143.8768  138.5444  165.7977 C.3     1  UNL1        0.0918
     29 N         143.9528  139.7627  164.9260 N.3     1  UNL1       -0.2651
     30 C         143.3156  141.0452  165.3725 C.3     1  UNL1        0.0918
     31 C         142.6024  141.1092  166.6905 C.3     1  UNL1        0.1128
     32 C         141.0999  140.0191  170.1981 C.3     1  UNL1        0.1960
     33 S         141.8132  139.9550  168.8802 S.O2    1  UNL1        0.0457
     34 O         143.1322  139.9484  169.5943 O.2     1  UNL1       -0.1572
     35 O         140.4941  139.9616  168.1661 O.2     1  UNL1       -0.1572
@<TRIPOS>BOND
     1    32    33    1
     2    33    34    2
     3    33    35    2
     4    33    26    1
     5    26    27    1
     6    27    28    1
     7    28    29    1
     8    29    25    1
     9    25     1    1
    10     1     2   ar
    11     2     3   ar
    12     3     4   ar
    13     4     5   ar
    14     5    10    1
    15    10    11   ar
    16    11    12   ar
    17    12    13   ar
    18    13    14    1
    19    13    15   ar
    20    15    16   ar
    21     5     6   ar
    22     6     7   ar
    23     7    19    1
    24    19    20    1
    25    20    21    1
    26    21    22    1
    27    22    23    1
    28    23    24    1
    29     7     8   ar
    30     8     9   ar
    31    29    30    1
    32    30    31    1
    33    31    26    1
    34     9     1   ar
    35     8     3   ar
    36    16    10   ar
    37    24    19    1
    38    14    17    1
    39    14    18    1
