@<TRIPOS>MOLECULE
*****
 30 33 0 0 0
SMALL
GASTEIGER

@<TRIPOS>ATOM
      1 C         142.6440  142.6259  170.1457 C.ar    1  UNL1        0.1418
      2 C         141.5069  142.2077  171.0300 C.ar    1  UNL1        0.0384
      3 C         140.4156  141.3342  170.4858 C.ar    1  UNL1        0.0246
      4 C         140.4614  140.8790  169.0573 C.ar    1  UNL1        0.1397
      5 C         141.5986  141.2971  168.1731 C.ar    1  UNL1        0.1589
      6 C         142.6899  142.1706  168.7173 C.ar    1  UNL1        0.0751
      7 O         141.6445  140.8419  166.7445 O.3     1  UNL1       -0.4716
      8 C         140.5532  139.9684  166.2003 C.3     1  UNL1        0.2102
      9 C         139.4160  139.5502  167.0847 C.3     1  UNL1        0.1779
     10 C         138.3247  138.6768  166.5405 C.3     1  UNL1        0.0300
     11 S         139.3701  140.0055  168.5132 S.O2    1  UNL1        0.0137
     12 O         138.8870  140.1783  169.9227 O.2     1  UNL1       -0.1685
     13 O         138.1111  139.1921  168.4585 O.2     1  UNL1       -0.1685
     14 C         140.5990  139.5131  164.7718 C.ar    1  UNL1        0.0191
     15 C         141.0087  138.1075  164.4454 C.ar    1  UNL1        0.0023
     16 C         141.0545  137.6523  163.0169 C.ar    1  UNL1        0.0367
     17 C         140.6907  138.6025  161.9148 C.ar    1  UNL1        0.1385
     18 C         140.2810  140.0081  162.2412 C.ar    1  UNL1        0.0367
     19 C         140.2352  140.4634  163.6698 C.ar    1  UNL1        0.0023
     20 O         140.7365  138.1473  160.4864 O.3     1  UNL1       -0.4754
     21 C         141.8713  138.5693  159.6007 C.3     1  UNL1        0.2068
     22 C         143.2787  138.5371  160.1184 C.3     1  UNL1        0.0646
     23 C         143.9414  139.8053  160.5685 C.3     1  UNL1        0.0759
     24 N         143.9916  140.1481  162.0280 N.3     1  UNL1       -0.2726
     25 C         144.3155  139.2013  163.1455 C.3     1  UNL1        0.0721
     26 C         144.2509  139.9659  164.4343 C.3     1  UNL1        0.0188
     27 C         143.8870  141.3853  164.1134 C.3     1  UNL1        0.0188
     28 C         143.7268  141.4979  162.6263 C.3     1  UNL1        0.0721
     29 C         145.1608  143.2538  170.2927 C.3     1  UNL1        0.2525
     30 O         143.7353  143.4993  170.6899 O.3     1  UNL1       -0.4713
@<TRIPOS>BOND
     1    29    30    1
     2    30     1    1
     3     1     2   ar
     4     2     3   ar
     5     3     4   ar
     6     4     5   ar
     7     5     6   ar
     8     5     7    1
     9     7     8    1
    10     8    14    1
    11    14    15   ar
    12    15    16   ar
    13    16    17   ar
    14    17    20    1
    15    20    21    1
    16    21    22    1
    17    22    23    1
    18    23    24    1
    19    24    25    1
    20    25    26    1
    21    26    27    1
    22    27    28    1
    23    17    18   ar
    24    18    19   ar
    25     8     9    1
    26     9    10    1
    27     9    11    1
    28    11    12    2
    29    11    13    2
    30     6     1   ar
    31    19    14   ar
    32    11     4    1
    33    28    24    1
@<TRIPOS>MOLECULE
*****
 30 33 0 0 0
SMALL
GASTEIGER

@<TRIPOS>ATOM
      1 C         140.9711  140.9935  169.9714 C.ar    1  UNL1        0.1418
      2 C         141.7627  139.7265  170.1051 C.ar    1  UNL1        0.0384
      3 C         142.5110  139.1816  168.9247 C.ar    1  UNL1        0.0246
      4 C         142.4677  139.9037  167.6108 C.ar    1  UNL1        0.1397
      5 C         141.6760  141.1708  167.4771 C.ar    1  UNL1        0.1589
      6 C         140.9278  141.7157  168.6574 C.ar    1  UNL1        0.0751
      7 O         141.6327  141.8930  166.1631 O.3     1  UNL1       -0.4716
      8 C         142.3810  141.3481  164.9828 C.3     1  UNL1        0.2102
      9 C         143.1726  140.0810  165.1165 C.3     1  UNL1        0.1779
     10 C         143.9209  139.5361  163.9362 C.3     1  UNL1        0.0300
     11 S         143.2160  139.3589  166.4305 S.O2    1  UNL1        0.0137
     12 O         143.5607  138.3224  167.4585 O.2     1  UNL1       -0.1685
     13 O         144.0840  138.4541  165.6072 O.2     1  UNL1       -0.1685
     14 C         142.3377  142.0703  163.6688 C.ar    1  UNL1        0.0191
     15 C         143.3141  143.1735  163.3867 C.ar    1  UNL1        0.0023
     16 C         143.2708  143.8957  162.0728 C.ar    1  UNL1        0.0367
     17 C         142.2510  143.5146  161.0408 C.ar    1  UNL1        0.1385
     18 C         141.2746  142.4115  161.3228 C.ar    1  UNL1        0.0367
     19 C         141.3179  141.6892  162.6368 C.ar    1  UNL1        0.0023
     20 O         142.2077  144.2368  159.7268 O.3     1  UNL1       -0.4754
     21 C         141.3009  145.4186  159.5500 C.3     1  UNL1        0.2068
     22 C         140.0057  145.4894  160.3032 C.3     1  UNL1        0.0646
     23 C         139.9775  146.0453  161.6960 C.3     1  UNL1        0.0759
     24 N         139.4545  145.2097  162.8267 N.3     1  UNL1       -0.2726
     25 C         138.1463  144.4760  162.8490 C.3     1  UNL1        0.0721
     26 C         138.0311  143.7740  164.1696 C.3     1  UNL1        0.0188
     27 C         139.2680  144.0738  164.9634 C.3     1  UNL1        0.0188
     28 C         140.1477  144.9611  164.1334 C.3     1  UNL1        0.0721
     29 C         139.5223  142.8609  171.0503 C.3     1  UNL1        0.2525
     30 O         140.2228  141.5384  171.1517 O.3     1  UNL1       -0.4713
@<TRIPOS>BOND
     1    29    30    1
     2    30     1    1
     3     1     2   ar
     4     2     3   ar
     5     3     4   ar
     6     4     5   ar
     7     5     6   ar
     8     5     7    1
     9     7     8    1
    10     8    14    1
    11    14    15   ar
    12    15    16   ar
    13    16    17   ar
    14    17    20    1
    15    20    21    1
    16    21    22    1
    17    22    23    1
    18    23    24    1
    19    24    25    1
    20    25    26    1
    21    26    27    1
    22    27    28    1
    23    17    18   ar
    24    18    19   ar
    25     8     9    1
    26     9    10    1
    27     9    11    1
    28    11    12    2
    29    11    13    2
    30     6     1   ar
    31    19    14   ar
    32    11     4    1
    33    28    24    1
@<TRIPOS>MOLECULE
*****
 30 33 0 0 0
SMALL
GASTEIGER

@<TRIPOS>ATOM
      1 C         142.5481  142.5210  169.8873 C.ar    1  UNL1        0.1418
      2 C         141.8063  141.4531  170.6351 C.ar    1  UNL1        0.0384
      3 C         140.7598  140.6370  169.9360 C.ar    1  UNL1        0.0246
      4 C         140.4551  140.8888  168.4890 C.ar    1  UNL1        0.1397
      5 C         141.1969  141.9567  167.7412 C.ar    1  UNL1        0.1589
      6 C         142.2434  142.7728  168.4404 C.ar    1  UNL1        0.0751
      7 O         140.8922  142.2086  166.2942 O.3     1  UNL1       -0.4716
      8 C         139.8457  141.3925  165.5951 C.3     1  UNL1        0.2102
      9 C         139.1039  140.3245  166.3429 C.3     1  UNL1        0.1779
     10 C         138.0574  139.5084  165.6438 C.3     1  UNL1        0.0300
     11 S         139.4086  140.0727  167.7899 S.O2    1  UNL1        0.0137
     12 O         139.3418  139.4640  169.1592 O.2     1  UNL1       -0.1685
     13 O         138.3389  139.0452  167.5663 O.2     1  UNL1       -0.1685
     14 C         139.5410  141.6443  164.1481 C.ar    1  UNL1        0.0191
     15 C         138.4222  142.5680  163.7670 C.ar    1  UNL1        0.0023
     16 C         138.1174  142.8198  162.3200 C.ar    1  UNL1        0.0367
     17 C         138.9314  142.1480  161.2542 C.ar    1  UNL1        0.1385
     18 C         140.0502  141.2244  161.6353 C.ar    1  UNL1        0.0367
     19 C         140.3549  140.9725  163.0823 C.ar    1  UNL1        0.0023
     20 O         138.6267  142.3998  159.8072 O.3     1  UNL1       -0.4754
     21 C         139.5251  143.2844  158.9945 C.3     1  UNL1        0.2068
     22 C         140.0729  144.5473  159.5902 C.3     1  UNL1        0.0646
     23 C         141.4756  144.5795  160.1204 C.3     1  UNL1        0.0759
     24 N         141.7212  144.4948  161.5978 N.3     1  UNL1       -0.2726
     25 C         140.9357  145.1993  162.6639 C.3     1  UNL1        0.0721
     26 C         141.5244  144.8307  163.9934 C.3     1  UNL1        0.0188
     27 C         142.6737  143.8984  163.7489 C.3     1  UNL1        0.0188
     28 C         142.7954  143.6908  162.2683 C.3     1  UNL1        0.0721
     29 C         145.0438  143.1450  170.2506 C.3     1  UNL1        0.2525
     30 O         143.5946  143.3371  170.5864 O.3     1  UNL1       -0.4713
@<TRIPOS>BOND
     1    29    30    1
     2    30     1    1
     3     1     2   ar
     4     2     3   ar
     5     3     4   ar
     6     4     5   ar
     7     5     6   ar
     8     5     7    1
     9     7     8    1
    10     8    14    1
    11    14    15   ar
    12    15    16   ar
    13    16    17   ar
    14    17    20    1
    15    20    21    1
    16    21    22    1
    17    22    23    1
    18    23    24    1
    19    24    25    1
    20    25    26    1
    21    26    27    1
    22    27    28    1
    23    17    18   ar
    24    18    19   ar
    25     8     9    1
    26     9    10    1
    27     9    11    1
    28    11    12    2
    29    11    13    2
    30     6     1   ar
    31    19    14   ar
    32    11     4    1
    33    28    24    1
@<TRIPOS>MOLECULE
*****
 30 33 0 0 0
SMALL
GASTEIGER

@<TRIPOS>ATOM
      1 C         140.6022  142.3541  169.1699 C.ar    1  UNL1        0.1418
      2 C         139.9244  141.1010  169.6391 C.ar    1  UNL1        0.0384
      3 C         139.3580  140.1356  168.6405 C.ar    1  UNL1        0.0246
      4 C         139.4694  140.4234  167.1726 C.ar    1  UNL1        0.1397
      5 C         140.1472  141.6765  166.7034 C.ar    1  UNL1        0.1589
      6 C         140.7136  142.6419  167.7020 C.ar    1  UNL1        0.0751
      7 O         140.2587  141.9643  165.2354 O.3     1  UNL1       -0.4716
      8 C         139.6923  140.9990  164.2367 C.3     1  UNL1        0.2102
      9 C         139.0145  139.7458  164.7060 C.3     1  UNL1        0.1779
     10 C         138.4481  138.7804  163.7074 C.3     1  UNL1        0.0300
     11 S         138.9031  139.4580  166.1739 S.O2    1  UNL1        0.0137
     12 O         138.5527  138.7495  167.4488 O.2     1  UNL1       -0.1685
     13 O         138.2150  138.2467  165.6180 O.2     1  UNL1       -0.1685
     14 C         139.8038  141.2867  162.7689 C.ar    1  UNL1        0.0191
     15 C         141.0109  140.8298  162.0045 C.ar    1  UNL1        0.0023
     16 C         141.1223  141.1176  160.5366 C.ar    1  UNL1        0.0367
     17 C         140.0267  141.8623  159.8330 C.ar    1  UNL1        0.1385
     18 C         138.8196  142.3192  160.5973 C.ar    1  UNL1        0.0367
     19 C         138.7081  142.0314  162.0653 C.ar    1  UNL1        0.0023
     20 O         140.1381  142.1500  158.3651 O.3     1  UNL1       -0.4754
     21 C         140.3228  143.5606  157.8892 C.3     1  UNL1        0.2068
     22 C         141.4184  144.4087  158.4640 C.3     1  UNL1        0.0646
     23 C         141.0888  145.5012  159.4374 C.3     1  UNL1        0.0759
     24 N         141.0586  145.2109  160.9088 N.3     1  UNL1       -0.2726
     25 C         142.0963  144.4487  161.6785 C.3     1  UNL1        0.0721
     26 C         141.6646  144.3985  163.1141 C.3     1  UNL1        0.0188
     27 C         140.3601  145.1298  163.2317 C.3     1  UNL1        0.0188
     28 C         139.9857  145.6318  161.8687 C.3     1  UNL1        0.0721
     29 C         142.6222  143.2551  170.5328 C.3     1  UNL1        0.2525
     30 O         141.1685  143.3195  170.1686 O.3     1  UNL1       -0.4713
@<TRIPOS>BOND
     1    29    30    1
     2    30     1    1
     3     1     2   ar
     4     2     3   ar
     5     3     4   ar
     6     4     5   ar
     7     5     6   ar
     8     5     7    1
     9     7     8    1
    10     8    14    1
    11    14    15   ar
    12    15    16   ar
    13    16    17   ar
    14    17    20    1
    15    20    21    1
    16    21    22    1
    17    22    23    1
    18    23    24    1
    19    24    25    1
    20    25    26    1
    21    26    27    1
    22    27    28    1
    23    17    18   ar
    24    18    19   ar
    25     8     9    1
    26     9    10    1
    27     9    11    1
    28    11    12    2
    29    11    13    2
    30     6     1   ar
    31    19    14   ar
    32    11     4    1
    33    28    24    1
@<TRIPOS>MOLECULE
*****
 30 33 0 0 0
SMALL
GASTEIGER

@<TRIPOS>ATOM
      1 C         139.8346  140.2011  170.1618 C.ar    1  UNL1        0.1418
      2 C         140.9462  140.9828  170.7969 C.ar    1  UNL1        0.0384
      3 C         141.9701  141.6639  169.9379 C.ar    1  UNL1        0.0246
      4 C         141.8823  141.5634  168.4439 C.ar    1  UNL1        0.1397
      5 C         140.7707  140.7818  167.8088 C.ar    1  UNL1        0.1589
      6 C         139.7469  140.1006  168.6678 C.ar    1  UNL1        0.0751
      7 O         140.6830  140.6812  166.3147 O.3     1  UNL1       -0.4716
      8 C         141.7068  141.3624  165.4558 C.3     1  UNL1        0.2102
      9 C         142.8184  142.1440  166.0909 C.3     1  UNL1        0.1779
     10 C         143.8423  142.8252  165.2320 C.3     1  UNL1        0.0300
     11 S         142.9062  142.2446  167.5850 S.O2    1  UNL1        0.0137
     12 O         143.4103  142.6279  168.9447 O.2     1  UNL1       -0.1685
     13 O         144.1050  143.0588  167.1982 O.2     1  UNL1       -0.1685
     14 C         141.6191  141.2618  163.9618 C.ar    1  UNL1        0.0191
     15 C         140.7336  142.2011  163.1975 C.ar    1  UNL1        0.0023
     16 C         140.6459  142.1006  161.7035 C.ar    1  UNL1        0.0367
     17 C         141.4436  141.0609  160.9736 C.ar    1  UNL1        0.1385
     18 C         142.3289  140.1216  161.7378 C.ar    1  UNL1        0.0367
     19 C         142.4167  140.2221  163.2319 C.ar    1  UNL1        0.0023
     20 O         141.3558  140.9603  159.4796 O.3     1  UNL1       -0.4754
     21 C         140.4806  139.9186  158.8481 C.3     1  UNL1        0.2068
     22 C         139.2427  139.4507  159.5541 C.3     1  UNL1        0.0646
     23 C         139.2927  138.2323  160.4276 C.3     1  UNL1        0.0759
     24 N         139.1735  138.3713  161.9164 N.3     1  UNL1       -0.2726
     25 C         139.8846  137.5362  162.9396 C.3     1  UNL1        0.0721
     26 C         139.4729  138.0186  164.2990 C.3     1  UNL1        0.0188
     27 C         138.5074  139.1519  164.1158 C.3     1  UNL1        0.0188
     28 C         138.3224  139.3699  162.6433 C.3     1  UNL1        0.0721
     29 C         137.3939  139.3969  170.5440 C.3     1  UNL1        0.2525
     30 O         138.8108  139.5200  171.0208 O.3     1  UNL1       -0.4713
@<TRIPOS>BOND
     1    29    30    1
     2    30     1    1
     3     1     2   ar
     4     2     3   ar
     5     3     4   ar
     6     4     5   ar
     7     5     6   ar
     8     5     7    1
     9     7     8    1
    10     8    14    1
    11    14    15   ar
    12    15    16   ar
    13    16    17   ar
    14    17    20    1
    15    20    21    1
    16    21    22    1
    17    22    23    1
    18    23    24    1
    19    24    25    1
    20    25    26    1
    21    26    27    1
    22    27    28    1
    23    17    18   ar
    24    18    19   ar
    25     8     9    1
    26     9    10    1
    27     9    11    1
    28    11    12    2
    29    11    13    2
    30     6     1   ar
    31    19    14   ar
    32    11     4    1
    33    28    24    1
@<TRIPOS>MOLECULE
*****
 30 33 0 0 0
SMALL
GASTEIGER

@<TRIPOS>ATOM
      1 C         140.9375  142.0164  169.7718 C.ar    1  UNL1        0.1418
      2 C         139.7492  141.2034  170.1922 C.ar    1  UNL1        0.0384
      3 C         139.0963  140.2695  169.2167 C.ar    1  UNL1        0.0246
      4 C         139.6317  140.1487  167.8208 C.ar    1  UNL1        0.1397
      5 C         140.8201  140.9617  167.4004 C.ar    1  UNL1        0.1589
      6 C         141.4730  141.8955  168.3759 C.ar    1  UNL1        0.0751
      7 O         141.3556  140.8409  166.0044 O.3     1  UNL1       -0.4716
      8 C         140.7027  139.9070  165.0289 C.3     1  UNL1        0.2102
      9 C         139.5143  139.0940  165.4493 C.3     1  UNL1        0.1779
     10 C         138.8614  138.1601  164.4738 C.3     1  UNL1        0.0300
     11 S         138.9788  139.2148  166.8452 S.O2    1  UNL1        0.0137
     12 O         138.1121  138.9835  168.0474 O.2     1  UNL1       -0.1685
     13 O         138.0249  138.2007  166.2872 O.2     1  UNL1       -0.1685
     14 C         141.2382  139.7862  163.6329 C.ar    1  UNL1        0.0191
     15 C         142.4219  138.9071  163.3572 C.ar    1  UNL1        0.0023
     16 C         142.9574  138.7863  161.9613 C.ar    1  UNL1        0.0367
     17 C         142.3091  139.5445  160.8410 C.ar    1  UNL1        0.1385
     18 C         141.1254  140.4235  161.1167 C.ar    1  UNL1        0.0367
     19 C         140.5899  140.5444  162.5127 C.ar    1  UNL1        0.0023
     20 O         142.8446  139.4236  159.4451 O.3     1  UNL1       -0.4754
     21 C         143.1100  140.6573  158.6342 C.3     1  UNL1        0.2068
     22 C         144.2104  141.5951  159.0336 C.3     1  UNL1        0.0646
     23 C         143.9116  142.7677  159.9200 C.3     1  UNL1        0.0759
     24 N         144.0076  142.6252  161.4101 N.3     1  UNL1       -0.2726
     25 C         145.0333  141.8232  162.1549 C.3     1  UNL1        0.0721
     26 C         144.7544  141.9619  163.6222 C.3     1  UNL1        0.0188
     27 C         143.5562  142.8498  163.7842 C.3     1  UNL1        0.0188
     28 C         143.0947  143.2597  162.4171 C.3     1  UNL1        0.0721
     29 C         143.0627  143.2220  170.6550 C.3     1  UNL1        0.2525
     30 O         141.5904  142.9502  170.7473 O.3     1  UNL1       -0.4713
@<TRIPOS>BOND
     1    29    30    1
     2    30     1    1
     3     1     2   ar
     4     2     3   ar
     5     3     4   ar
     6     4     5   ar
     7     5     6   ar
     8     5     7    1
     9     7     8    1
    10     8    14    1
    11    14    15   ar
    12    15    16   ar
    13    16    17   ar
    14    17    20    1
    15    20    21    1
    16    21    22    1
    17    22    23    1
    18    23    24    1
    19    24    25    1
    20    25    26    1
    21    26    27    1
    22    27    28    1
    23    17    18   ar
    24    18    19   ar
    25     8     9    1
    26     9    10    1
    27     9    11    1
    28    11    12    2
    29    11    13    2
    30     6     1   ar
    31    19    14   ar
    32    11     4    1
    33    28    24    1
@<TRIPOS>MOLECULE
*****
 30 33 0 0 0
SMALL
GASTEIGER

@<TRIPOS>ATOM
      1 C         140.8945  141.9864  169.6544 C.ar    1  UNL1        0.1418
      2 C         139.6303  141.2664  170.0194 C.ar    1  UNL1        0.0384
      3 C         139.0146  140.2962  169.0552 C.ar    1  UNL1        0.0246
      4 C         139.6631  140.0461  167.7261 C.ar    1  UNL1        0.1397
      5 C         140.9273  140.7661  167.3611 C.ar    1  UNL1        0.1589
      6 C         141.5430  141.7363  168.3252 C.ar    1  UNL1        0.0751
      7 O         141.5759  140.5159  166.0318 O.3     1  UNL1       -0.4716
      8 C         140.9603  139.5458  165.0676 C.3     1  UNL1        0.2102
      9 C         139.6960  138.8257  165.4327 C.3     1  UNL1        0.1779
     10 C         139.0803  137.8555  164.4685 C.3     1  UNL1        0.0300
     11 S         139.0474  139.0759  166.7619 S.O2    1  UNL1        0.0137
     12 O         138.0668  138.9772  167.8926 O.2     1  UNL1       -0.1685
     13 O         138.0912  138.0715  166.1904 O.2     1  UNL1       -0.1685
     14 C         141.6088  139.2956  163.7384 C.ar    1  UNL1        0.0191
     15 C         140.9731  139.8169  162.4837 C.ar    1  UNL1        0.0023
     16 C         141.6216  139.5668  161.1546 C.ar    1  UNL1        0.0367
     17 C         142.9058  138.7953  161.0800 C.ar    1  UNL1        0.1385
     18 C         143.5415  138.2739  162.3346 C.ar    1  UNL1        0.0367
     19 C         142.8930  138.5241  163.6639 C.ar    1  UNL1        0.0023
     20 O         143.5544  138.5451  159.7508 O.3     1  UNL1       -0.4754
     21 C         142.7823  138.7721  158.4849 C.3     1  UNL1        0.2068
     22 C         142.1910  137.6072  157.7479 C.3     1  UNL1        0.0646
     23 C         143.0246  136.8410  156.7640 C.3     1  UNL1        0.0759
     24 N         142.7748  135.3777  156.5485 N.3     1  UNL1       -0.2726
     25 C         143.4500  134.2518  157.2740 C.3     1  UNL1        0.0721
     26 C         142.8986  132.9616  156.7436 C.3     1  UNL1        0.0188
     27 C         141.8825  133.2902  155.6902 C.3     1  UNL1        0.0188
     28 C         141.8060  134.7834  155.5696 C.3     1  UNL1        0.0721
     29 C         142.9925  143.1857  170.6084 C.3     1  UNL1        0.2525
     30 O         141.5102  142.9566  170.6186 O.3     1  UNL1       -0.4713
@<TRIPOS>BOND
     1    29    30    1
     2    30     1    1
     3     1     2   ar
     4     2     3   ar
     5     3     4   ar
     6     4     5   ar
     7     5     6   ar
     8     5     7    1
     9     7     8    1
    10     8    14    1
    11    14    15   ar
    12    15    16   ar
    13    16    17   ar
    14    17    20    1
    15    20    21    1
    16    21    22    1
    17    22    23    1
    18    23    24    1
    19    24    25    1
    20    25    26    1
    21    26    27    1
    22    27    28    1
    23    17    18   ar
    24    18    19   ar
    25     8     9    1
    26     9    10    1
    27     9    11    1
    28    11    12    2
    29    11    13    2
    30     6     1   ar
    31    19    14   ar
    32    11     4    1
    33    28    24    1
@<TRIPOS>MOLECULE
*****
 30 33 0 0 0
SMALL
GASTEIGER

@<TRIPOS>ATOM
      1 C         142.7934  137.7263  156.9406 C.ar    1  UNL1        0.1418
      2 C         141.7199  138.2546  156.0360 C.ar    1  UNL1        0.0384
      3 C         140.4574  138.8169  156.6190 C.ar    1  UNL1        0.0246
      4 C         140.2684  138.8509  158.1067 C.ar    1  UNL1        0.1397
      5 C         141.3420  138.3226  159.0113 C.ar    1  UNL1        0.1589
      6 C         142.6045  137.7603  158.4283 C.ar    1  UNL1        0.0751
      7 O         141.1530  138.3565  160.4990 O.3     1  UNL1       -0.4716
      8 C         139.8905  138.9188  161.0820 C.3     1  UNL1        0.2102
      9 C         138.8169  139.4471  160.1773 C.3     1  UNL1        0.1779
     10 C         137.5544  140.0094  160.7604 C.3     1  UNL1        0.0300
     11 S         139.0059  139.4132  158.6897 S.O2    1  UNL1        0.0137
     12 O         138.7222  139.5966  157.2282 O.2     1  UNL1       -0.1685
     13 O         137.6449  140.0391  158.7652 O.2     1  UNL1       -0.1685
     14 C         139.7016  138.9528  162.5697 C.ar    1  UNL1        0.0191
     15 C         140.0596  140.1871  163.3432 C.ar    1  UNL1        0.0023
     16 C         139.8706  140.2211  164.8308 C.ar    1  UNL1        0.0367
     17 C         139.3236  139.0208  165.5450 C.ar    1  UNL1        0.1385
     18 C         138.9656  137.7865  164.7715 C.ar    1  UNL1        0.0367
     19 C         139.1546  137.7525  163.2838 C.ar    1  UNL1        0.0023
     20 O         139.1347  139.0548  167.0326 O.3     1  UNL1       -0.4754
     21 C         139.6025  140.2420  167.8212 C.3     1  UNL1        0.2068
     22 C         140.6144  140.0649  168.9141 C.3     1  UNL1        0.0646
     23 C         142.0576  140.3844  168.6590 C.3     1  UNL1        0.0759
     24 N         142.6329  140.2094  167.2848 N.3     1  UNL1       -0.2726
     25 C         142.8992  138.9014  166.6004 C.3     1  UNL1        0.0721
     26 C         143.4738  139.1952  165.2464 C.3     1  UNL1        0.0188
     27 C         143.5626  140.6848  165.0939 C.3     1  UNL1        0.0188
     28 C         143.0429  141.3116  166.3536 C.3     1  UNL1        0.0721
     29 C         143.9966  135.9714  155.4498 C.3     1  UNL1        0.2525
     30 O         144.0559  137.1640  156.3576 O.3     1  UNL1       -0.4713
@<TRIPOS>BOND
     1    29    30    1
     2    30     1    1
     3     1     2   ar
     4     2     3   ar
     5     3     4   ar
     6     4     5   ar
     7     5     6   ar
     8     5     7    1
     9     7     8    1
    10     8    14    1
    11    14    15   ar
    12    15    16   ar
    13    16    17   ar
    14    17    20    1
    15    20    21    1
    16    21    22    1
    17    22    23    1
    18    23    24    1
    19    24    25    1
    20    25    26    1
    21    26    27    1
    22    27    28    1
    23    17    18   ar
    24    18    19   ar
    25     8     9    1
    26     9    10    1
    27     9    11    1
    28    11    12    2
    29    11    13    2
    30     6     1   ar
    31    19    14   ar
    32    11     4    1
    33    28    24    1
@<TRIPOS>MOLECULE
*****
 30 33 0 0 0
SMALL
GASTEIGER

@<TRIPOS>ATOM
      1 C         142.6369  141.8584  159.1813 C.ar    1  UNL1        0.1418
      2 C         141.5045  142.5744  158.5070 C.ar    1  UNL1        0.0384
      3 C         140.2402  142.8580  159.2628 C.ar    1  UNL1        0.0246
      4 C         140.1085  142.4255  160.6930 C.ar    1  UNL1        0.1397
      5 C         141.2409  141.7095  161.3674 C.ar    1  UNL1        0.1589
      6 C         142.5051  141.4259  160.6115 C.ar    1  UNL1        0.0751
      7 O         141.1092  141.2770  162.7977 O.3     1  UNL1       -0.4716
      8 C         139.8450  141.5605  163.5535 C.3     1  UNL1        0.2102
      9 C         138.7125  142.2766  162.8791 C.3     1  UNL1        0.1779
     10 C         137.4483  142.5602  163.6350 C.3     1  UNL1        0.0300
     11 S         138.8442  142.7091  161.4489 S.O2    1  UNL1        0.0137
     12 O         138.4948  143.3129  160.1210 O.2     1  UNL1       -0.1685
     13 O         137.4587  143.2023  161.7436 O.2     1  UNL1       -0.1685
     14 C         139.7132  141.1281  164.9838 C.ar    1  UNL1        0.0191
     15 C         139.3165  139.7181  165.3075 C.ar    1  UNL1        0.0023
     16 C         139.1847  139.2856  166.7377 C.ar    1  UNL1        0.0367
     17 C         139.4496  140.2631  167.8442 C.ar    1  UNL1        0.1385
     18 C         139.8464  141.6729  167.5206 C.ar    1  UNL1        0.0367
     19 C         139.9782  142.1055  166.0903 C.ar    1  UNL1        0.0023
     20 O         139.3179  139.8306  169.2745 O.3     1  UNL1       -0.4754
     21 C         140.4963  139.9241  170.1979 C.3     1  UNL1        0.2068
     22 C         141.8306  139.3909  169.7675 C.3     1  UNL1        0.0646
     23 C         142.8141  140.2940  169.0842 C.3     1  UNL1        0.0759
     24 N         143.0185  140.1954  167.6014 N.3     1  UNL1       -0.2726
     25 C         142.9493  138.9399  166.7835 C.3     1  UNL1        0.0721
     26 C         143.2159  139.3034  165.3529 C.3     1  UNL1        0.0188
     27 C         143.4499  140.7836  165.2866 C.3     1  UNL1        0.0188
     28 C         143.3278  141.3348  166.6763 C.3     1  UNL1        0.0721
     29 C         145.0917  142.4720  158.5917 C.3     1  UNL1        0.2525
     30 O         143.9011  141.5748  158.4254 O.3     1  UNL1       -0.4713
@<TRIPOS>BOND
     1    29    30    1
     2    30     1    1
     3     1     2   ar
     4     2     3   ar
     5     3     4   ar
     6     4     5   ar
     7     5     6   ar
     8     5     7    1
     9     7     8    1
    10     8    14    1
    11    14    15   ar
    12    15    16   ar
    13    16    17   ar
    14    17    20    1
    15    20    21    1
    16    21    22    1
    17    22    23    1
    18    23    24    1
    19    24    25    1
    20    25    26    1
    21    26    27    1
    22    27    28    1
    23    17    18   ar
    24    18    19   ar
    25     8     9    1
    26     9    10    1
    27     9    11    1
    28    11    12    2
    29    11    13    2
    30     6     1   ar
    31    19    14   ar
    32    11     4    1
    33    28    24    1
