@<TRIPOS>MOLECULE
*****
 28 32 0 0 0
SMALL
GASTEIGER

@<TRIPOS>ATOM
      1 C         141.4955  141.4394  171.0706 C.3     1  UNL1        0.0902
      2 N         141.1089  141.1536  169.6498 N.3     1  UNL1       -0.2612
      3 C         142.0044  141.7428  168.6005 C.3     1  UNL1        0.1010
      4 C         141.8901  141.6403  167.1084 C.ar    1  UNL1        0.0109
      5 C         142.9994  142.3804  166.4217 C.ar    1  UNL1        0.0099
      6 C         143.0707  142.4036  164.9236 C.ar    1  UNL1        0.0575
      7 CL        144.1800  143.1437  164.2368 Cl      1  UNL1       -0.0823
      8 C         142.0326  141.6866  164.1122 C.ar    1  UNL1        0.0129
      9 C         140.9233  140.9465  164.7989 C.ar    1  UNL1        0.0182
     10 C         140.8520  140.9233  166.2970 C.ar    1  UNL1        0.0636
     11 N         139.6719  140.1318  166.7774 N.ar    1  UNL1       -0.2799
     12 C         139.2383  139.8616  168.1877 C.ar    1  UNL1        0.1632
     13 N         137.9977  139.0202  168.1381 N.ar    1  UNL1       -0.1319
     14 N         137.6644  138.7702  166.6972 N.ar    1  UNL1       -0.1333
     15 C         138.6991  139.4572  165.8561 C.ar    1  UNL1        0.1465
     16 C         139.8779  140.3164  169.4660 C.3     1  UNL1        0.1396
     17 C         138.7518  139.4677  164.3572 C.3     1  UNL1        0.0625
     18 C         138.0772  140.5665  163.5906 C.3     1  UNL1        0.0291
     19 C         138.1299  140.5771  162.0916 C.3     1  UNL1        0.0926
     20 N         138.8572  139.4889  161.3590 N.pl3   1  UNL1       -0.2932
     21 C         139.5319  138.3901  162.1255 C.3     1  UNL1        0.0926
     22 C         139.4792  138.3795  163.6245 C.3     1  UNL1        0.0291
     23 C         138.9099  139.4994  159.8600 C.ar    1  UNL1        0.1317
     24 C         138.1453  140.5349  159.0899 C.ar    1  UNL1        0.0343
     25 C         138.1980  140.5455  157.5908 C.ar    1  UNL1        0.0045
     26 C         139.0154  139.5205  156.8619 C.ar    1  UNL1        0.0208
     27 C         139.7800  138.4850  157.6320 C.ar    1  UNL1        0.1003
     28 N         139.7273  138.4745  159.1311 N.ar    1  UNL1       -0.2292
@<TRIPOS>BOND
     1     1     2    1
     2     2     3    1
     3     3     4    1
     4     4     5   ar
     5     5     6   ar
     6     6     7    1
     7     6     8   ar
     8     8     9   ar
     9     9    10   ar
    10    10    11    1
    11    11    12   ar
    12    12    13   ar
    13    13    14   ar
    14    14    15   ar
    15    15    17    1
    16    17    18    1
    17    18    19    1
    18    19    20    1
    19    20    23    1
    20    23    24   ar
    21    24    25   ar
    22    25    26   ar
    23    26    27   ar
    24    27    28   ar
    25    20    21    1
    26    21    22    1
    27    12    16    1
    28    16     2    1
    29    10     4   ar
    30    15    11   ar
    31    22    17    1
    32    28    23   ar
@<TRIPOS>MOLECULE
*****
 28 32 0 0 0
SMALL
GASTEIGER

@<TRIPOS>ATOM
      1 C         140.7897  141.9673  171.1248 C.3     1  UNL1        0.0902
      2 N         140.7282  141.4740  169.7096 N.3     1  UNL1       -0.2612
      3 C         141.8062  141.9789  168.7969 C.3     1  UNL1        0.1010
      4 C         142.0191  141.6756  167.3434 C.ar    1  UNL1        0.0109
      5 C         143.2223  142.3911  166.8048 C.ar    1  UNL1        0.0099
      6 C         143.6130  142.2235  165.3663 C.ar    1  UNL1        0.0575
      7 CL        144.8163  142.9390  164.8276 Cl      1  UNL1       -0.0823
      8 C         142.8004  141.3403  164.4665 C.ar    1  UNL1        0.0129
      9 C         141.5972  140.6248  165.0051 C.ar    1  UNL1        0.0182
     10 C         141.2065  140.7924  166.4436 C.ar    1  UNL1        0.0636
     11 N         139.9804  139.9945  166.7750 N.ar    1  UNL1       -0.2799
     12 C         139.2639  139.8826  168.0881 C.ar    1  UNL1        0.1632
     13 N         138.0944  138.9622  167.9011 N.ar    1  UNL1       -0.1319
     14 N         138.0880  138.5052  166.4725 N.ar    1  UNL1       -0.1333
     15 C         139.2535  139.1432  165.7764 C.ar    1  UNL1        0.1465
     16 C         139.5968  140.5411  169.3941 C.3     1  UNL1        0.1396
     17 C         139.6268  138.9618  164.3351 C.3     1  UNL1        0.0625
     18 C         139.0685  139.8858  163.2936 C.3     1  UNL1        0.0291
     19 C         139.4417  139.7044  161.8523 C.3     1  UNL1        0.0926
     20 N         140.3733  138.5989  161.4521 N.pl3   1  UNL1       -0.2932
     21 C         140.9316  137.6748  162.4935 C.3     1  UNL1        0.0926
     22 C         140.5584  137.8562  163.9349 C.3     1  UNL1        0.0291
     23 C         140.7465  138.4175  160.0106 C.ar    1  UNL1        0.1317
     24 C         142.1850  138.2374  159.6254 C.ar    1  UNL1        0.0343
     25 C         142.5583  138.0559  158.1839 C.ar    1  UNL1        0.0045
     26 C         141.4931  138.0545  157.1278 C.ar    1  UNL1        0.0208
     27 C         140.0546  138.2346  157.5131 C.ar    1  UNL1        0.1003
     28 N         139.6814  138.4160  158.9546 N.ar    1  UNL1       -0.2292
@<TRIPOS>BOND
     1     1     2    1
     2     2     3    1
     3     3     4    1
     4     4     5   ar
     5     5     6   ar
     6     6     7    1
     7     6     8   ar
     8     8     9   ar
     9     9    10   ar
    10    10    11    1
    11    11    12   ar
    12    12    13   ar
    13    13    14   ar
    14    14    15   ar
    15    15    17    1
    16    17    18    1
    17    18    19    1
    18    19    20    1
    19    20    23    1
    20    23    24   ar
    21    24    25   ar
    22    25    26   ar
    23    26    27   ar
    24    27    28   ar
    25    20    21    1
    26    21    22    1
    27    12    16    1
    28    16     2    1
    29    10     4   ar
    30    15    11   ar
    31    22    17    1
    32    28    23   ar
@<TRIPOS>MOLECULE
*****
 28 32 0 0 0
SMALL
GASTEIGER

@<TRIPOS>ATOM
      1 C         142.0669  140.6999  170.8570 C.3     1  UNL1        0.0902
      2 N         141.5283  140.7330  169.4575 N.3     1  UNL1       -0.2612
      3 C         142.3436  141.5070  168.4644 C.3     1  UNL1        0.1010
      4 C         142.0776  141.7270  167.0046 C.ar    1  UNL1        0.0109
      5 C         143.1487  142.5656  166.3727 C.ar    1  UNL1        0.0099
      6 C         143.0726  142.9045  164.9135 C.ar    1  UNL1        0.0575
      7 CL        144.1438  143.7432  164.2815 Cl      1  UNL1       -0.0823
      8 C         141.9256  142.4047  164.0862 C.ar    1  UNL1        0.0129
      9 C         140.8545  141.5660  164.7182 C.ar    1  UNL1        0.0182
     10 C         140.9305  141.2272  166.1774 C.ar    1  UNL1        0.0636
     11 N         139.7661  140.3840  166.6056 N.ar    1  UNL1       -0.2799
     12 C         139.4612  139.8324  167.9667 C.ar    1  UNL1        0.1632
     13 N         138.1819  139.0547  167.8758 N.ar    1  UNL1       -0.1319
     14 N         137.6961  139.1256  166.4585 N.ar    1  UNL1       -0.1333
     15 C         138.6751  139.9471  165.6734 C.ar    1  UNL1        0.1465
     16 C         140.2455  139.9877  169.2359 C.3     1  UNL1        0.1396
     17 C         138.5800  140.2744  164.2127 C.3     1  UNL1        0.0625
     18 C         139.2348  139.3824  163.1999 C.3     1  UNL1        0.0291
     19 C         139.1397  139.7096  161.7392 C.3     1  UNL1        0.0926
     20 N         138.3897  140.9289  161.2911 N.pl3   1  UNL1       -0.2932
     21 C         137.7349  141.8210  162.3037 C.3     1  UNL1        0.0926
     22 C         137.8300  141.4937  163.7645 C.3     1  UNL1        0.0291
     23 C         138.2946  141.2562  159.8303 C.ar    1  UNL1        0.1317
     24 C         138.7454  142.5970  159.3312 C.ar    1  UNL1        0.0343
     25 C         138.6502  142.9243  157.8704 C.ar    1  UNL1        0.0045
     26 C         138.1042  141.9108  156.9088 C.ar    1  UNL1        0.0208
     27 C         137.6534  140.5701  157.4079 C.ar    1  UNL1        0.1003
     28 N         137.7486  140.2428  158.8687 N.ar    1  UNL1       -0.2292
@<TRIPOS>BOND
     1     1     2    1
     2     2     3    1
     3     3     4    1
     4     4     5   ar
     5     5     6   ar
     6     6     7    1
     7     6     8   ar
     8     8     9   ar
     9     9    10   ar
    10    10    11    1
    11    11    12   ar
    12    12    13   ar
    13    13    14   ar
    14    14    15   ar
    15    15    17    1
    16    17    18    1
    17    18    19    1
    18    19    20    1
    19    20    23    1
    20    23    24   ar
    21    24    25   ar
    22    25    26   ar
    23    26    27   ar
    24    27    28   ar
    25    20    21    1
    26    21    22    1
    27    12    16    1
    28    16     2    1
    29    10     4   ar
    30    15    11   ar
    31    22    17    1
    32    28    23   ar
@<TRIPOS>MOLECULE
*****
 28 32 0 0 0
SMALL
GASTEIGER

@<TRIPOS>ATOM
      1 C         140.8037  142.0494  170.9703 C.3     1  UNL1        0.0902
      2 N         141.1445  141.6047  169.5789 N.3     1  UNL1       -0.2612
      3 C         140.5801  142.4435  168.4708 C.3     1  UNL1        0.1010
      4 C         140.7364  142.2648  166.9897 C.ar    1  UNL1        0.0109
      5 C         140.0054  143.3309  166.2289 C.ar    1  UNL1        0.0099
      6 C         140.0339  143.3353  164.7292 C.ar    1  UNL1        0.0575
      7 CL        139.3029  144.4015  163.9683 Cl      1  UNL1       -0.0823
      8 C         140.7932  142.2735  163.9903 C.ar    1  UNL1        0.0129
      9 C         141.5242  141.2074  164.7512 C.ar    1  UNL1        0.0182
     10 C         141.4958  141.2030  166.2509 C.ar    1  UNL1        0.0636
     11 N         142.2864  140.0577  166.8107 N.ar    1  UNL1       -0.2799
     12 C         142.5129  139.6913  168.2475 C.ar    1  UNL1        0.1632
     13 N         143.3728  138.4629  168.2826 N.ar    1  UNL1       -0.1319
     14 N         143.6778  138.0699  166.8675 N.ar    1  UNL1       -0.1333
     15 C         143.0064  139.0556  165.9577 C.ar    1  UNL1        0.1465
     16 C         142.0047  140.3798  169.4794 C.3     1  UNL1        0.1396
     17 C         143.0477  139.0416  164.4585 C.3     1  UNL1        0.0625
     18 C         142.0251  138.2609  163.6871 C.3     1  UNL1        0.0291
     19 C         142.0664  138.2469  162.1879 C.3     1  UNL1        0.0926
     20 N         143.1302  139.0136  161.4597 N.pl3   1  UNL1       -0.2932
     21 C         144.1528  139.7944  162.2308 C.3     1  UNL1        0.0926
     22 C         144.1116  139.8084  163.7302 C.3     1  UNL1        0.0291
     23 C         143.1715  138.9997  159.9603 C.ar    1  UNL1        0.1317
     24 C         143.7305  140.1749  159.2144 C.ar    1  UNL1        0.0343
     25 C         143.7718  140.1610  157.7150 C.ar    1  UNL1        0.0045
     26 C         143.2541  138.9718  156.9616 C.ar    1  UNL1        0.0208
     27 C         142.6951  137.7965  157.7074 C.ar    1  UNL1        0.1003
     28 N         142.6538  137.8105  159.2068 N.ar    1  UNL1       -0.2292
@<TRIPOS>BOND
     1     1     2    1
     2     2     3    1
     3     3     4    1
     4     4     5   ar
     5     5     6   ar
     6     6     7    1
     7     6     8   ar
     8     8     9   ar
     9     9    10   ar
    10    10    11    1
    11    11    12   ar
    12    12    13   ar
    13    13    14   ar
    14    14    15   ar
    15    15    17    1
    16    17    18    1
    17    18    19    1
    18    19    20    1
    19    20    23    1
    20    23    24   ar
    21    24    25   ar
    22    25    26   ar
    23    26    27   ar
    24    27    28   ar
    25    20    21    1
    26    21    22    1
    27    12    16    1
    28    16     2    1
    29    10     4   ar
    30    15    11   ar
    31    22    17    1
    32    28    23   ar
@<TRIPOS>MOLECULE
*****
 28 32 0 0 0
SMALL
GASTEIGER

@<TRIPOS>ATOM
      1 C         141.8787  143.3879  157.1118 C.3     1  UNL1        0.0902
      2 N         141.6135  143.1524  158.5692 N.3     1  UNL1       -0.2612
      3 C         142.8198  142.8602  159.4114 C.3     1  UNL1        0.1010
      4 C         142.8876  142.5837  160.8842 C.ar    1  UNL1        0.0109
      5 C         144.2984  142.3400  161.3316 C.ar    1  UNL1        0.0099
      6 C         144.5873  142.0437  162.7734 C.ar    1  UNL1        0.0575
      7 CL        145.9982  141.8000  163.2209 Cl      1  UNL1       -0.0823
      8 C         143.4654  141.9911  163.7677 C.ar    1  UNL1        0.0129
      9 C         142.0547  142.2348  163.3202 C.ar    1  UNL1        0.0182
     10 C         141.7658  142.5311  161.8785 C.ar    1  UNL1        0.0636
     11 N         140.2990  142.7420  161.6455 N.ar    1  UNL1       -0.2799
     12 C         139.5919  143.0576  160.3609 C.ar    1  UNL1        0.1632
     13 N         138.1255  143.1724  160.6550 N.ar    1  UNL1       -0.1319
     14 N         137.9263  142.9276  162.1214 N.ar    1  UNL1       -0.1333
     15 C         139.2696  142.6617  162.7337 C.ar    1  UNL1        0.1465
     16 C         140.1769  143.2403  158.9918 C.3     1  UNL1        0.1396
     17 C         139.5366  142.3671  164.1799 C.3     1  UNL1        0.0625
     18 C         139.9170  143.4776  165.1138 C.3     1  UNL1        0.0291
     19 C         140.1840  143.1830  166.5601 C.3     1  UNL1        0.0926
     20 N         140.0707  141.7779  167.0726 N.pl3   1  UNL1       -0.2932
     21 C         139.6903  140.6673  166.1389 C.3     1  UNL1        0.0926
     22 C         139.4233  140.9619  164.6925 C.3     1  UNL1        0.0291
     23 C         140.3377  141.4832  168.5190 C.ar    1  UNL1        0.1317
     24 C         139.7617  140.2515  169.1522 C.ar    1  UNL1        0.0343
     25 C         140.0287  139.9568  170.5986 C.ar    1  UNL1        0.0045
     26 C         140.8717  140.8939  171.4117 C.ar    1  UNL1        0.0208
     27 C         141.4478  142.1257  170.7785 C.ar    1  UNL1        0.1003
     28 N         141.1808  142.4203  169.3321 N.ar    1  UNL1       -0.2292
@<TRIPOS>BOND
     1     1     2    1
     2     2     3    1
     3     3     4    1
     4     4     5   ar
     5     5     6   ar
     6     6     7    1
     7     6     8   ar
     8     8     9   ar
     9     9    10   ar
    10    10    11    1
    11    11    12   ar
    12    12    13   ar
    13    13    14   ar
    14    14    15   ar
    15    15    17    1
    16    17    18    1
    17    18    19    1
    18    19    20    1
    19    20    23    1
    20    23    24   ar
    21    24    25   ar
    22    25    26   ar
    23    26    27   ar
    24    27    28   ar
    25    20    21    1
    26    21    22    1
    27    12    16    1
    28    16     2    1
    29    10     4   ar
    30    15    11   ar
    31    22    17    1
    32    28    23   ar
@<TRIPOS>MOLECULE
*****
 28 32 0 0 0
SMALL
GASTEIGER

@<TRIPOS>ATOM
      1 C         144.2757  140.7645  157.0837 C.3     1  UNL1        0.0902
      2 N         143.8363  140.6018  158.5086 N.3     1  UNL1       -0.2612
      3 C         143.9961  141.8114  159.3812 C.3     1  UNL1        0.1010
      4 C         143.6542  141.9691  160.8332 C.ar    1  UNL1        0.0109
      5 C         143.9734  143.3498  161.3246 C.ar    1  UNL1        0.0099
      6 C         143.7064  143.7175  162.7541 C.ar    1  UNL1        0.0575
      7 CL        144.0256  145.0984  163.2455 Cl      1  UNL1       -0.0823
      8 C         143.1202  142.7044  163.6922 C.ar    1  UNL1        0.0129
      9 C         142.8011  141.3236  163.2008 C.ar    1  UNL1        0.0182
     10 C         143.0680  140.9559  161.7713 C.ar    1  UNL1        0.0636
     11 N         142.6790  139.5350  161.4890 N.ar    1  UNL1       -0.2799
     12 C         142.7800  138.7762  160.1990 C.ar    1  UNL1        0.1632
     13 N         142.2614  137.3888  160.4355 N.ar    1  UNL1       -0.1319
     14 N         141.8398  137.2901  161.8716 N.ar    1  UNL1       -0.1333
     15 C         142.0979  138.6165  162.5228 C.ar    1  UNL1        0.1465
     16 C         143.2951  139.2510  158.8726 C.3     1  UNL1        0.1396
     17 C         141.8232  138.9634  163.9559 C.3     1  UNL1        0.0625
     18 C         142.8998  138.7985  164.9873 C.3     1  UNL1        0.0291
     19 C         142.6251  139.1455  166.4205 C.3     1  UNL1        0.0926
     20 N         141.2737  139.6574  166.8224 N.pl3   1  UNL1       -0.2932
     21 C         140.1970  139.8224  165.7911 C.3     1  UNL1        0.0926
     22 C         140.4717  139.4754  164.3579 C.3     1  UNL1        0.0291
     23 C         140.9989  140.0044  168.2557 C.ar    1  UNL1        0.1317
     24 C         139.5936  140.2735  168.7060 C.ar    1  UNL1        0.0343
     25 C         139.3188  140.6205  170.1392 C.ar    1  UNL1        0.0045
     26 C         140.4492  140.6983  171.1220 C.ar    1  UNL1        0.0208
     27 C         141.8545  140.4292  170.6717 C.ar    1  UNL1        0.1003
     28 N         142.1293  140.0822  169.2385 N.ar    1  UNL1       -0.2292
@<TRIPOS>BOND
     1     1     2    1
     2     2     3    1
     3     3     4    1
     4     4     5   ar
     5     5     6   ar
     6     6     7    1
     7     6     8   ar
     8     8     9   ar
     9     9    10   ar
    10    10    11    1
    11    11    12   ar
    12    12    13   ar
    13    13    14   ar
    14    14    15   ar
    15    15    17    1
    16    17    18    1
    17    18    19    1
    18    19    20    1
    19    20    23    1
    20    23    24   ar
    21    24    25   ar
    22    25    26   ar
    23    26    27   ar
    24    27    28   ar
    25    20    21    1
    26    21    22    1
    27    12    16    1
    28    16     2    1
    29    10     4   ar
    30    15    11   ar
    31    22    17    1
    32    28    23   ar
@<TRIPOS>MOLECULE
*****
 28 32 0 0 0
SMALL
GASTEIGER

@<TRIPOS>ATOM
      1 C         143.7730  142.2840  156.5718 C.3     1  UNL1        0.0902
      2 N         143.4080  142.1029  158.0154 N.3     1  UNL1       -0.2612
      3 C         142.6240  143.2222  158.6339 C.3     1  UNL1        0.1010
      4 C         142.1136  143.3415  160.0393 C.ar    1  UNL1        0.0109
      5 C         141.3726  144.6292  160.2458 C.ar    1  UNL1        0.0099
      6 C         140.7791  144.9463  161.5864 C.ar    1  UNL1        0.0575
      7 CL        140.0380  146.2341  161.7929 Cl      1  UNL1       -0.0823
      8 C         140.9267  143.9757  162.7205 C.ar    1  UNL1        0.0129
      9 C         141.6677  142.6880  162.5140 C.ar    1  UNL1        0.0182
     10 C         142.2611  142.3709  161.1735 C.ar    1  UNL1        0.0636
     11 N         142.9556  141.0413  161.1822 N.ar    1  UNL1       -0.2799
     12 C         143.6739  140.3539  160.0590 C.ar    1  UNL1        0.1632
     13 N         144.1957  139.0456  160.5745 N.ar    1  UNL1       -0.1319
     14 N         143.7999  138.9243  162.0162 N.ar    1  UNL1       -0.1333
     15 C         143.0334  140.1577  162.3918 C.ar    1  UNL1        0.1465
     16 C         143.8753  140.8264  158.6497 C.3     1  UNL1        0.1396
     17 C         142.4477  140.4553  163.7402 C.3     1  UNL1        0.0625
     18 C         143.2503  141.2131  164.7560 C.3     1  UNL1        0.0291
     19 C         142.6646  141.5107  166.1044 C.3     1  UNL1        0.0926
     20 N         141.2762  141.0505  166.4372 N.pl3   1  UNL1       -0.2932
     21 C         140.4736  140.2928  165.4215 C.3     1  UNL1        0.0926
     22 C         141.0593  139.9951  164.0730 C.3     1  UNL1        0.0291
     23 C         140.6904  141.3481  167.7856 C.ar    1  UNL1        0.1317
     24 C         140.8837  142.7003  168.4054 C.ar    1  UNL1        0.0343
     25 C         140.2979  142.9979  169.7539 C.ar    1  UNL1        0.0045
     26 C         139.5189  141.9433  170.4825 C.ar    1  UNL1        0.0208
     27 C         139.3257  140.5911  169.8627 C.ar    1  UNL1        0.1003
     28 N         139.9115  140.2935  168.5142 N.ar    1  UNL1       -0.2292
@<TRIPOS>BOND
     1     1     2    1
     2     2     3    1
     3     3     4    1
     4     4     5   ar
     5     5     6   ar
     6     6     7    1
     7     6     8   ar
     8     8     9   ar
     9     9    10   ar
    10    10    11    1
    11    11    12   ar
    12    12    13   ar
    13    13    14   ar
    14    14    15   ar
    15    15    17    1
    16    17    18    1
    17    18    19    1
    18    19    20    1
    19    20    23    1
    20    23    24   ar
    21    24    25   ar
    22    25    26   ar
    23    26    27   ar
    24    27    28   ar
    25    20    21    1
    26    21    22    1
    27    12    16    1
    28    16     2    1
    29    10     4   ar
    30    15    11   ar
    31    22    17    1
    32    28    23   ar
@<TRIPOS>MOLECULE
*****
 28 32 0 0 0
SMALL
GASTEIGER

@<TRIPOS>ATOM
      1 C         138.6067  142.5579  156.9025 C.3     1  UNL1        0.0902
      2 N         139.0127  142.5538  158.3464 N.3     1  UNL1       -0.2612
      3 C         138.7586  141.2763  159.0903 C.3     1  UNL1        0.1010
      4 C         139.0481  140.9572  160.5271 C.ar    1  UNL1        0.0109
      5 C         138.6364  139.5564  160.8711 C.ar    1  UNL1        0.0099
      6 C         138.8399  139.0353  162.2628 C.ar    1  UNL1        0.0575
      7 CL        138.4282  137.6345  162.6069 Cl      1  UNL1       -0.0823
      8 C         139.4550  139.9150  163.3106 C.ar    1  UNL1        0.0129
      9 C         139.8667  141.3157  162.9667 C.ar    1  UNL1        0.0182
     10 C         139.6633  141.8368  161.5749 C.ar    1  UNL1        0.0636
     11 N         140.1408  143.2528  161.4446 N.ar    1  UNL1       -0.2799
     12 C         140.1212  144.1389  160.2345 C.ar    1  UNL1        0.1632
     13 N         140.7109  145.4631  160.6199 N.ar    1  UNL1       -0.1319
     14 N         141.0950  145.3955  162.0683 N.ar    1  UNL1       -0.1333
     15 C         140.7427  144.0294  162.5781 C.ar    1  UNL1        0.1465
     16 C         139.6191  143.8278  158.8557 C.3     1  UNL1        0.1396
     17 C         140.9550  143.5281  163.9757 C.3     1  UNL1        0.0625
     18 C         142.2572  142.8859  164.3525 C.3     1  UNL1        0.0291
     19 C         142.4694  142.3845  165.7501 C.3     1  UNL1        0.0926
     20 N         141.3796  142.5253  166.7711 N.pl3   1  UNL1       -0.2932
     21 C         140.0774  143.1675  166.3944 C.3     1  UNL1        0.0926
     22 C         139.8651  143.6689  164.9967 C.3     1  UNL1        0.0291
     23 C         141.5919  142.0239  168.1688 C.ar    1  UNL1        0.1317
     24 C         142.9815  141.9105  168.7219 C.ar    1  UNL1        0.0343
     25 C         143.1938  141.4091  170.1197 C.ar    1  UNL1        0.0045
     26 C         142.0164  141.0211  170.9642 C.ar    1  UNL1        0.0208
     27 C         140.6268  141.1346  170.4111 C.ar    1  UNL1        0.1003
     28 N         140.4145  141.6360  169.0133 N.ar    1  UNL1       -0.2292
@<TRIPOS>BOND
     1     1     2    1
     2     2     3    1
     3     3     4    1
     4     4     5   ar
     5     5     6   ar
     6     6     7    1
     7     6     8   ar
     8     8     9   ar
     9     9    10   ar
    10    10    11    1
    11    11    12   ar
    12    12    13   ar
    13    13    14   ar
    14    14    15   ar
    15    15    17    1
    16    17    18    1
    17    18    19    1
    18    19    20    1
    19    20    23    1
    20    23    24   ar
    21    24    25   ar
    22    25    26   ar
    23    26    27   ar
    24    27    28   ar
    25    20    21    1
    26    21    22    1
    27    12    16    1
    28    16     2    1
    29    10     4   ar
    30    15    11   ar
    31    22    17    1
    32    28    23   ar
@<TRIPOS>MOLECULE
*****
 28 32 0 0 0
SMALL
GASTEIGER

@<TRIPOS>ATOM
      1 C         141.9518  139.6752  169.7027 C.3     1  UNL1        0.0902
      2 N         141.9740  140.1438  168.2780 N.3     1  UNL1       -0.2612
      3 C         141.0821  141.3076  167.9617 C.3     1  UNL1        0.1010
      4 C         140.8811  142.0018  166.6472 C.ar    1  UNL1        0.0109
      5 C         139.8949  143.1257  166.7662 C.ar    1  UNL1        0.0099
      6 C         139.5500  143.9514  165.5624 C.ar    1  UNL1        0.0575
      7 CL        138.5637  145.0754  165.6813 Cl      1  UNL1       -0.0823
      8 C         140.1913  143.6532  164.2396 C.ar    1  UNL1        0.0129
      9 C         141.1775  142.5293  164.1206 C.ar    1  UNL1        0.0182
     10 C         141.5224  141.7036  165.3244 C.ar    1  UNL1        0.0636
     11 N         142.5231  140.6376  164.9894 N.ar    1  UNL1       -0.2799
     12 C         143.1297  139.6065  165.8943 C.ar    1  UNL1        0.1632
     13 N         144.0744  138.7732  165.0801 N.ar    1  UNL1       -0.1319
     14 N         144.0517  139.2892  163.6718 N.ar    1  UNL1       -0.1333
     15 C         143.0929  140.4415  163.6158 C.ar    1  UNL1        0.1465
     16 C         142.8853  139.3868  167.3579 C.3     1  UNL1        0.1396
     17 C         142.7621  141.2548  162.3997 C.3     1  UNL1        0.0625
     18 C         143.5899  142.4568  162.0532 C.3     1  UNL1        0.0291
     19 C         143.2591  143.2701  160.8371 C.3     1  UNL1        0.0926
     20 N         142.1005  142.8816  159.9674 N.pl3   1  UNL1       -0.2932
     21 C         141.2727  141.6796  160.3137 C.3     1  UNL1        0.0926
     22 C         141.6035  140.8662  161.5298 C.3     1  UNL1        0.0291
     23 C         141.7697  143.6949  158.7512 C.ar    1  UNL1        0.1317
     24 C         140.8151  143.1575  157.7264 C.ar    1  UNL1        0.0343
     25 C         140.4843  143.9709  156.5103 C.ar    1  UNL1        0.0045
     26 C         141.1080  145.3216  156.3189 C.ar    1  UNL1        0.0208
     27 C         142.0625  145.8590  157.3436 C.ar    1  UNL1        0.1003
     28 N         142.3934  145.0456  158.5598 N.ar    1  UNL1       -0.2292
@<TRIPOS>BOND
     1     1     2    1
     2     2     3    1
     3     3     4    1
     4     4     5   ar
     5     5     6   ar
     6     6     7    1
     7     6     8   ar
     8     8     9   ar
     9     9    10   ar
    10    10    11    1
    11    11    12   ar
    12    12    13   ar
    13    13    14   ar
    14    14    15   ar
    15    15    17    1
    16    17    18    1
    17    18    19    1
    18    19    20    1
    19    20    23    1
    20    23    24   ar
    21    24    25   ar
    22    25    26   ar
    23    26    27   ar
    24    27    28   ar
    25    20    21    1
    26    21    22    1
    27    12    16    1
    28    16     2    1
    29    10     4   ar
    30    15    11   ar
    31    22    17    1
    32    28    23   ar
