@<TRIPOS>MOLECULE
*****
 37 41 0 0 0
SMALL
GASTEIGER

@<TRIPOS>ATOM
      1 N         138.6834  138.9699  163.6083 N.3     1  UNL1       -0.2690
      2 C         138.4245  140.3976  163.2279 C.3     1  UNL1        0.0724
      3 C         138.5074  140.8175  161.7903 C.3     1  UNL1        0.0175
      4 C         138.8492  139.8098  160.7331 C.3     1  UNL1        0.0060
      5 C         139.1081  138.3821  161.1135 C.3     1  UNL1        0.0175
      6 C         139.0252  137.9622  162.5511 C.3     1  UNL1        0.0724
      7 C         138.5903  141.2375  160.3526 C.3     1  UNL1        0.0217
      8 C         138.6733  141.6574  158.9150 C.3     1  UNL1        0.0938
      9 N         139.0150  140.6497  157.8578 N.am    1  UNL1       -0.2748
     10 C         139.0979  141.0697  156.4201 C.2     1  UNL1        0.2668
     11 O         139.4397  140.0620  155.3629 O.2     1  UNL1       -0.2683
     12 C         139.2739  139.2220  158.2382 C.3     1  UNL1        0.0938
     13 C         139.1910  138.8020  159.6759 C.3     1  UNL1        0.0217
     14 C         138.8391  142.4973  156.0397 C.ar    1  UNL1        0.1348
     15 C         137.4788  142.9114  155.5621 C.ar    1  UNL1        0.0250
     16 C         137.2199  144.3391  155.1817 C.ar    1  UNL1        0.0174
     17 C         138.3214  145.3527  155.2789 C.ar    1  UNL1        0.0610
     18 N         138.0625  146.7804  154.8986 N.pl3   1  UNL1       -0.3558
     19 C         139.6817  144.9386  155.7566 C.ar    1  UNL1        0.1130
     20 N         139.9405  143.5109  156.1370 N.ar    1  UNL1       -0.2380
     21 H         137.1697  147.0522  154.5851 H       1  UNL1        0.1424
     22 H         138.7854  147.4457  154.9624 H       1  UNL1        0.1424
     23 C         138.6005  138.5499  165.0459 C.3     1  UNL1        0.0989
     24 C         143.2308  139.2497  164.7577 C.3     1  UNL1        0.1372
     25 C         141.7960  138.8921  164.5056 C.3     1  UNL1        0.0691
     26 C         141.0060  139.2562  165.7276 C.ar    1  UNL1        0.0126
     27 C         139.5470  139.1325  166.0532 C.ar    1  UNL1       -0.0071
     28 C         139.0345  139.5914  167.3862 C.ar    1  UNL1       -0.0030
     29 C         139.9811  140.1740  168.3935 C.ar    1  UNL1        0.0028
     30 C         141.4400  140.2977  168.0679 C.ar    1  UNL1        0.0365
     31 C         141.9525  139.8388  166.7349 C.ar    1  UNL1        0.1340
     32 O         143.3275  139.8348  166.1355 O.3     1  UNL1       -0.4826
     33 C         143.4433  138.7160  163.3721 C.3     1  UNL1        0.0404
     34 C         142.5009  139.0971  162.2689 C.3     1  UNL1        0.0037
     35 C         144.7100  139.4957  164.7201 C.3     1  UNL1        0.0404
     36 C         145.0236  142.0130  164.1589 C.3     1  UNL1        0.0001
     37 C         145.2695  140.5692  163.8344 C.3     1  UNL1        0.0036
@<TRIPOS>BOND
     1    36    37    1
     2    37    35    1
     3    35    24    1
     4    24    33    1
     5    33    34    1
     6    24    25    1
     7    25    26    1
     8    26    27   ar
     9    27    23    1
    10    23     1    1
    11     1     2    1
    12     2     3    1
    13     3     4    1
    14     4     5    1
    15     5     6    1
    16     4     7    1
    17     7     8    1
    18     8     9    1
    19     9    10   am
    20    10    11    2
    21    10    14    1
    22    14    15   ar
    23    15    16   ar
    24    16    17   ar
    25    17    18    1
    26    17    19   ar
    27    19    20   ar
    28     9    12    1
    29    12    13    1
    30    27    28   ar
    31    28    29   ar
    32    29    30   ar
    33    30    31   ar
    34    31    32    1
    35    32    24    1
    36    31    26   ar
    37     6     1    1
    38    20    14   ar
    39    13     4    1
    40    18    21    1
    41    18    22    1
@<TRIPOS>MOLECULE
*****
 37 41 0 0 0
SMALL
GASTEIGER

@<TRIPOS>ATOM
      1 N         139.0042  141.5977  160.0789 N.3     1  UNL1       -0.2690
      2 C         138.5306  140.2341  159.6710 C.3     1  UNL1        0.0724
      3 C         139.4279  139.3366  158.8715 C.3     1  UNL1        0.0175
      4 C         140.7988  139.8027  158.4798 C.3     1  UNL1        0.0060
      5 C         141.2724  141.1662  158.8877 C.3     1  UNL1        0.0175
      6 C         140.3751  142.0637  159.6872 C.3     1  UNL1        0.0724
      7 C         140.3253  138.4390  158.0719 C.3     1  UNL1        0.0217
      8 C         141.2226  137.5415  157.2724 C.3     1  UNL1        0.0938
      9 N         142.5935  138.0076  156.8807 N.am    1  UNL1       -0.2748
     10 C         143.4908  137.1100  156.0812 C.2     1  UNL1        0.2668
     11 O         144.8617  137.5761  155.6895 O.2     1  UNL1       -0.2683
     12 C         143.0671  139.3712  157.2886 C.3     1  UNL1        0.0938
     13 C         142.1697  140.2687  158.0882 C.3     1  UNL1        0.0217
     14 C         143.0172  135.7465  155.6733 C.ar    1  UNL1        0.1348
     15 C         142.4695  135.5240  154.2948 C.ar    1  UNL1        0.0250
     16 C         141.9959  134.1605  153.8869 C.ar    1  UNL1        0.0174
     17 C         142.0700  133.0193  154.8577 C.ar    1  UNL1        0.0610
     18 N         141.5965  131.6557  154.4498 N.pl3   1  UNL1       -0.3558
     19 C         142.6178  133.2417  156.2362 C.ar    1  UNL1        0.1130
     20 N         143.0914  134.6054  156.6441 N.ar    1  UNL1       -0.2380
     21 H         141.2369  131.5097  153.5450 H       1  UNL1        0.1424
     22 H         141.6451  130.9067  155.0869 H       1  UNL1        0.1424
     23 C         138.1069  142.4952  160.8785 C.3     1  UNL1        0.0989
     24 C         138.9815  139.5674  164.4387 C.3     1  UNL1        0.1372
     25 C         138.6636  140.1862  163.1097 C.3     1  UNL1        0.0691
     26 C         138.6756  141.6767  163.2778 C.ar    1  UNL1        0.0126
     27 C         138.4322  142.7977  162.3111 C.ar    1  UNL1       -0.0071
     28 C         138.5143  144.2210  162.7773 C.ar    1  UNL1       -0.0030
     29 C         138.8396  144.5234  164.2101 C.ar    1  UNL1        0.0028
     30 C         139.0830  143.4025  165.1766 C.ar    1  UNL1        0.0365
     31 C         139.0009  141.9791  164.7105 C.ar    1  UNL1        0.1340
     32 O         139.1900  140.6755  165.4279 O.3     1  UNL1       -0.4826
     33 C         138.8330  138.2734  163.6947 C.3     1  UNL1        0.0404
     34 C         139.8556  137.8746  162.6722 C.3     1  UNL1        0.0037
     35 C         139.2685  138.6781  165.6121 C.3     1  UNL1        0.0404
     36 C         137.3252  138.1187  167.2432 C.3     1  UNL1        0.0001
     37 C         138.2200  137.7255  166.1053 C.3     1  UNL1        0.0036
@<TRIPOS>BOND
     1    36    37    1
     2    37    35    1
     3    35    24    1
     4    24    33    1
     5    33    34    1
     6    24    25    1
     7    25    26    1
     8    26    27   ar
     9    27    23    1
    10    23     1    1
    11     1     2    1
    12     2     3    1
    13     3     4    1
    14     4     5    1
    15     5     6    1
    16     4     7    1
    17     7     8    1
    18     8     9    1
    19     9    10   am
    20    10    11    2
    21    10    14    1
    22    14    15   ar
    23    15    16   ar
    24    16    17   ar
    25    17    18    1
    26    17    19   ar
    27    19    20   ar
    28     9    12    1
    29    12    13    1
    30    27    28   ar
    31    28    29   ar
    32    29    30   ar
    33    30    31   ar
    34    31    32    1
    35    32    24    1
    36    31    26   ar
    37     6     1    1
    38    20    14   ar
    39    13     4    1
    40    18    21    1
    41    18    22    1
@<TRIPOS>MOLECULE
*****
 37 41 0 0 0
SMALL
GASTEIGER

@<TRIPOS>ATOM
      1 N         142.3926  138.7473  160.7291 N.3     1  UNL1       -0.2690
      2 C         143.1806  139.7018  161.5764 C.3     1  UNL1        0.0724
      3 C         142.7529  139.9818  162.9865 C.3     1  UNL1        0.0175
      4 C         141.5372  139.3072  163.5495 C.3     1  UNL1        0.0060
      5 C         140.7492  138.3526  162.7023 C.3     1  UNL1        0.0175
      6 C         141.1769  138.0726  161.2921 C.3     1  UNL1        0.0724
      7 C         142.3252  140.2618  164.3968 C.3     1  UNL1        0.0217
      8 C         141.8974  140.5417  165.8069 C.3     1  UNL1        0.0938
      9 N         140.6817  139.8671  166.3699 N.am    1  UNL1       -0.2748
     10 C         140.2540  140.1471  167.7802 C.2     1  UNL1        0.2668
     11 O         139.0383  139.4725  168.3431 O.2     1  UNL1       -0.2683
     12 C         139.8937  138.9125  165.5227 C.3     1  UNL1        0.0938
     13 C         140.3215  138.6325  164.1124 C.3     1  UNL1        0.0217
     14 C         141.0420  141.1017  168.6274 C.ar    1  UNL1        0.1348
     15 C         140.4685  142.4427  168.9777 C.ar    1  UNL1        0.0250
     16 C         141.2565  143.3973  169.8249 C.ar    1  UNL1        0.0174
     17 C         142.6180  143.0108  170.3219 C.ar    1  UNL1        0.0610
     18 N         143.4060  143.9654  171.1691 N.pl3   1  UNL1       -0.3558
     19 C         143.1915  141.6698  169.9715 C.ar    1  UNL1        0.1130
     20 N         142.4035  140.7152  169.1243 N.ar    1  UNL1       -0.2380
     21 H         143.0296  144.8456  171.3990 H       1  UNL1        0.1424
     22 H         144.2996  143.7118  171.4952 H       1  UNL1        0.1424
     23 C         142.8204  138.4673  159.3189 C.3     1  UNL1        0.0989
     24 C         142.5102  135.0738  156.0939 C.3     1  UNL1        0.1372
     25 C         142.9162  135.9729  157.2239 C.3     1  UNL1        0.0691
     26 C         141.9045  137.0757  157.3252 C.ar    1  UNL1        0.0126
     27 C         141.7892  138.2499  158.2515 C.ar    1  UNL1       -0.0071
     28 C         140.6425  139.2066  158.1105 C.ar    1  UNL1       -0.0030
     29 C         139.6113  138.9891  157.0431 C.ar    1  UNL1        0.0028
     30 C         139.7267  137.8150  156.1168 C.ar    1  UNL1        0.0365
     31 C         140.8733  136.8583  156.2578 C.ar    1  UNL1        0.1340
     32 O         141.2477  135.6210  155.4968 O.3     1  UNL1       -0.4826
     33 C         143.7417  134.3051  156.4712 C.3     1  UNL1        0.0404
     34 C         143.8998  133.7804  157.8676 C.3     1  UNL1        0.0037
     35 C         142.3616  134.0141  155.0427 C.3     1  UNL1        0.0404
     36 C         141.0208  131.9783  154.1440 C.3     1  UNL1        0.0001
     37 C         141.4767  132.8289  155.2924 C.3     1  UNL1        0.0036
@<TRIPOS>BOND
     1    36    37    1
     2    37    35    1
     3    35    24    1
     4    24    33    1
     5    33    34    1
     6    24    25    1
     7    25    26    1
     8    26    27   ar
     9    27    23    1
    10    23     1    1
    11     1     2    1
    12     2     3    1
    13     3     4    1
    14     4     5    1
    15     5     6    1
    16     4     7    1
    17     7     8    1
    18     8     9    1
    19     9    10   am
    20    10    11    2
    21    10    14    1
    22    14    15   ar
    23    15    16   ar
    24    16    17   ar
    25    17    18    1
    26    17    19   ar
    27    19    20   ar
    28     9    12    1
    29    12    13    1
    30    27    28   ar
    31    28    29   ar
    32    29    30   ar
    33    30    31   ar
    34    31    32    1
    35    32    24    1
    36    31    26   ar
    37     6     1    1
    38    20    14   ar
    39    13     4    1
    40    18    21    1
    41    18    22    1
@<TRIPOS>MOLECULE
*****
 37 41 0 0 0
SMALL
GASTEIGER

@<TRIPOS>ATOM
      1 N         143.8057  140.2946  163.6365 N.3     1  UNL1       -0.2690
      2 C         143.3582  138.9135  163.2596 C.3     1  UNL1        0.0724
      3 C         143.2303  138.5350  161.8138 C.3     1  UNL1        0.0175
      4 C         143.5499  139.5376  160.7449 C.3     1  UNL1        0.0060
      5 C         143.9974  140.9188  161.1218 C.3     1  UNL1        0.0175
      6 C         144.1253  141.2973  162.5676 C.3     1  UNL1        0.0724
      7 C         143.1024  138.1564  160.3679 C.3     1  UNL1        0.0217
      8 C         142.9745  137.7779  158.9222 C.3     1  UNL1        0.0938
      9 N         143.2941  138.7806  157.8533 N.am    1  UNL1       -0.2748
     10 C         143.1662  138.4020  156.4074 C.2     1  UNL1        0.2668
     11 O         143.4858  139.4047  155.3385 O.2     1  UNL1       -0.2683
     12 C         143.7416  140.1617  158.2302 C.3     1  UNL1        0.0938
     13 C         143.8695  140.5403  159.6760 C.3     1  UNL1        0.0217
     14 C         142.7187  137.0209  156.0305 C.ar    1  UNL1        0.1348
     15 C         143.7148  135.9012  155.9658 C.ar    1  UNL1        0.0250
     16 C         143.2673  134.5201  155.5889 C.ar    1  UNL1        0.0174
     17 C         141.8236  134.2585  155.2767 C.ar    1  UNL1        0.0610
     18 N         141.3761  132.8773  154.8998 N.pl3   1  UNL1       -0.3558
     19 C         140.8275  135.3781  155.3414 C.ar    1  UNL1        0.1130
     20 N         141.2751  136.7593  155.7183 N.ar    1  UNL1       -0.2380
     21 H         142.0299  132.1425  154.8574 H       1  UNL1        0.1424
     22 H         140.4286  132.7057  154.6949 H       1  UNL1        0.1424
     23 C         143.9337  140.6732  165.0823 C.3     1  UNL1        0.0989
     24 C         140.4262  143.7864  164.9478 C.3     1  UNL1        0.1372
     25 C         141.6757  142.9926  164.7054 C.3     1  UNL1        0.0691
     26 C         141.7154  141.8743  165.7042 C.ar    1  UNL1        0.0126
     27 C         142.7087  140.7757  165.9420 C.ar    1  UNL1       -0.0071
     28 C         142.4771  139.7797  167.0394 C.ar    1  UNL1       -0.0030
     29 C         141.2521  139.8822  167.8990 C.ar    1  UNL1        0.0028
     30 C         140.2588  140.9808  167.6613 C.ar    1  UNL1        0.0365
     31 C         140.4905  141.9768  166.5639 C.ar    1  UNL1        0.1340
     32 O         139.6937  143.1585  166.0964 O.3     1  UNL1       -0.4826
     33 C         140.9191  144.6164  163.7997 C.3     1  UNL1        0.0404
     34 C         142.3259  145.1370  163.8002 C.3     1  UNL1        0.0037
     35 C         139.2797  144.7537  164.9502 C.3     1  UNL1        0.0404
     36 C         137.7259  143.4926  163.2933 C.3     1  UNL1        0.0001
     37 C         137.9098  144.2939  164.5479 C.3     1  UNL1        0.0036
@<TRIPOS>BOND
     1    36    37    1
     2    37    35    1
     3    35    24    1
     4    24    33    1
     5    33    34    1
     6    24    25    1
     7    25    26    1
     8    26    27   ar
     9    27    23    1
    10    23     1    1
    11     1     2    1
    12     2     3    1
    13     3     4    1
    14     4     5    1
    15     5     6    1
    16     4     7    1
    17     7     8    1
    18     8     9    1
    19     9    10   am
    20    10    11    2
    21    10    14    1
    22    14    15   ar
    23    15    16   ar
    24    16    17   ar
    25    17    18    1
    26    17    19   ar
    27    19    20   ar
    28     9    12    1
    29    12    13    1
    30    27    28   ar
    31    28    29   ar
    32    29    30   ar
    33    30    31   ar
    34    31    32    1
    35    32    24    1
    36    31    26   ar
    37     6     1    1
    38    20    14   ar
    39    13     4    1
    40    18    21    1
    41    18    22    1
@<TRIPOS>MOLECULE
*****
 37 41 0 0 0
SMALL
GASTEIGER

@<TRIPOS>ATOM
      1 N         140.0003  138.6860  161.1857 N.3     1  UNL1       -0.2690
      2 C         140.9934  139.6040  161.8344 C.3     1  UNL1        0.0724
      3 C         140.8906  139.9049  163.3002 C.3     1  UNL1        0.0175
      4 C         139.7946  139.2877  164.1175 C.3     1  UNL1        0.0060
      5 C         138.8014  138.3697  163.4688 C.3     1  UNL1        0.0175
      6 C         138.9043  138.0688  162.0030 C.3     1  UNL1        0.0724
      7 C         140.7878  140.2058  164.7662 C.3     1  UNL1        0.0217
      8 C         140.6849  140.5067  166.2321 C.3     1  UNL1        0.0938
      9 N         139.5889  139.8895  167.0493 N.am    1  UNL1       -0.2748
     10 C         139.4861  140.1905  168.5153 C.2     1  UNL1        0.2668
     11 O         138.3901  139.5733  169.3325 O.2     1  UNL1       -0.2683
     12 C         138.5958  138.9715  166.4007 C.3     1  UNL1        0.0938
     13 C         138.6986  138.6706  164.9347 C.3     1  UNL1        0.0217
     14 C         140.4792  141.1085  169.1639 C.ar    1  UNL1        0.1348
     15 C         140.1638  142.5670  169.3171 C.ar    1  UNL1        0.0250
     16 C         141.1570  143.4850  169.9657 C.ar    1  UNL1        0.0174
     17 C         142.4656  142.9446  170.4612 C.ar    1  UNL1        0.0610
     18 N         143.4588  143.8627  171.1099 N.pl3   1  UNL1       -0.3558
     19 C         142.7811  141.4862  170.3081 C.ar    1  UNL1        0.1130
     20 N         141.7878  140.5681  169.6594 N.ar    1  UNL1       -0.2380
     21 H         143.2517  144.8199  171.2104 H       1  UNL1        0.1424
     22 H         144.3177  143.5080  171.4351 H       1  UNL1        0.1424
     23 C         140.1031  138.3850  159.7198 C.3     1  UNL1        0.0989
     24 C         139.5615  137.8600  155.0891 C.3     1  UNL1        0.1372
     25 C         139.8997  137.6955  156.5412 C.3     1  UNL1        0.0691
     26 C         139.4068  138.9091  157.2722 C.ar    1  UNL1        0.0126
     27 C         139.4603  139.2995  158.7195 C.ar    1  UNL1       -0.0071
     28 C         138.8710  140.6045  159.1666 C.ar    1  UNL1       -0.0030
     29 C         138.2282  141.5190  158.1662 C.ar    1  UNL1        0.0028
     30 C         138.1748  141.1285  156.7190 C.ar    1  UNL1        0.0365
     31 C         138.7641  139.8236  156.2719 C.ar    1  UNL1        0.1340
     32 O         138.8597  139.1752  154.9227 O.3     1  UNL1       -0.4826
     33 C         140.2215  136.5207  154.9457 C.3     1  UNL1        0.0404
     34 C         141.4719  136.2145  155.7157 C.3     1  UNL1        0.0037
     35 C         139.3613  137.7445  153.6070 C.3     1  UNL1        0.0404
     36 C         136.9637  137.3326  152.6948 C.3     1  UNL1        0.0001
     37 C         138.3217  136.8111  153.0611 C.3     1  UNL1        0.0036
@<TRIPOS>BOND
     1    36    37    1
     2    37    35    1
     3    35    24    1
     4    24    33    1
     5    33    34    1
     6    24    25    1
     7    25    26    1
     8    26    27   ar
     9    27    23    1
    10    23     1    1
    11     1     2    1
    12     2     3    1
    13     3     4    1
    14     4     5    1
    15     5     6    1
    16     4     7    1
    17     7     8    1
    18     8     9    1
    19     9    10   am
    20    10    11    2
    21    10    14    1
    22    14    15   ar
    23    15    16   ar
    24    16    17   ar
    25    17    18    1
    26    17    19   ar
    27    19    20   ar
    28     9    12    1
    29    12    13    1
    30    27    28   ar
    31    28    29   ar
    32    29    30   ar
    33    30    31   ar
    34    31    32    1
    35    32    24    1
    36    31    26   ar
    37     6     1    1
    38    20    14   ar
    39    13     4    1
    40    18    21    1
    41    18    22    1
@<TRIPOS>MOLECULE
*****
 37 41 0 0 0
SMALL
GASTEIGER

@<TRIPOS>ATOM
      1 N         143.9313  142.9977  164.2396 N.3     1  UNL1       -0.2690
      2 C         142.6994  143.6830  163.7269 C.3     1  UNL1        0.0724
      3 C         142.4638  143.7962  162.2499 C.3     1  UNL1        0.0175
      4 C         143.4601  143.2240  161.2855 C.3     1  UNL1        0.0060
      5 C         144.6919  142.5387  161.7981 C.3     1  UNL1        0.0175
      6 C         144.9275  142.4255  163.2751 C.3     1  UNL1        0.0724
      7 C         142.2282  143.9094  160.7728 C.3     1  UNL1        0.0217
      8 C         141.9926  144.0225  159.2958 C.3     1  UNL1        0.0938
      9 N         142.9889  143.4504  158.3314 N.am    1  UNL1       -0.2748
     10 C         142.7532  143.5636  156.8543 C.2     1  UNL1        0.2668
     11 O         143.7495  142.9914  155.8899 O.2     1  UNL1       -0.2683
     12 C         144.2207  142.7650  158.8440 C.3     1  UNL1        0.0938
     13 C         144.4564  142.6518  160.3211 C.3     1  UNL1        0.0217
     14 C         141.5214  144.2489  156.3417 C.ar    1  UNL1        0.1348
     15 C         141.5519  145.7173  156.0368 C.ar    1  UNL1        0.0250
     16 C         140.3201  146.4026  155.5242 C.ar    1  UNL1        0.0174
     17 C         139.0576  145.6196  155.3164 C.ar    1  UNL1        0.0610
     18 N         137.8258  146.3049  154.8038 N.pl3   1  UNL1       -0.3558
     19 C         139.0271  144.1512  155.6212 C.ar    1  UNL1        0.1130
     20 N         140.2590  143.4658  156.1339 N.ar    1  UNL1       -0.2380
     21 H         137.8458  147.2686  154.6037 H       1  UNL1        0.1424
     22 H         136.9972  145.7910  154.6674 H       1  UNL1        0.1424
     23 C         144.1669  142.8845  165.7166 C.3     1  UNL1        0.0989
     24 C         142.0378  138.8530  164.6093 C.3     1  UNL1        0.1372
     25 C         142.8409  140.1199  164.6126 C.3     1  UNL1        0.0691
     26 C         142.7118  140.7470  165.9691 C.ar    1  UNL1        0.0126
     27 C         143.2841  142.0052  166.5517 C.ar    1  UNL1       -0.0071
     28 C         142.9736  142.3840  167.9695 C.ar    1  UNL1       -0.0030
     29 C         142.0908  141.5045  168.8046 C.ar    1  UNL1        0.0028
     30 C         141.5185  140.2464  168.2219 C.ar    1  UNL1        0.0365
     31 C         141.8290  139.8676  166.8042 C.ar    1  UNL1        0.1340
     32 O         141.4125  138.6971  165.9638 O.3     1  UNL1       -0.4826
     33 C         142.5163  138.7391  163.1922 C.3     1  UNL1        0.0404
     34 C         143.9693  138.9320  162.8734 C.3     1  UNL1        0.0037
     35 C         141.3348  137.5622  164.3098 C.3     1  UNL1        0.0404
     36 C         138.9454  137.6573  163.2941 C.3     1  UNL1        0.0001
     37 C         139.8475  137.4620  164.4766 C.3     1  UNL1        0.0036
@<TRIPOS>BOND
     1    36    37    1
     2    37    35    1
     3    35    24    1
     4    24    33    1
     5    33    34    1
     6    24    25    1
     7    25    26    1
     8    26    27   ar
     9    27    23    1
    10    23     1    1
    11     1     2    1
    12     2     3    1
    13     3     4    1
    14     4     5    1
    15     5     6    1
    16     4     7    1
    17     7     8    1
    18     8     9    1
    19     9    10   am
    20    10    11    2
    21    10    14    1
    22    14    15   ar
    23    15    16   ar
    24    16    17   ar
    25    17    18    1
    26    17    19   ar
    27    19    20   ar
    28     9    12    1
    29    12    13    1
    30    27    28   ar
    31    28    29   ar
    32    29    30   ar
    33    30    31   ar
    34    31    32    1
    35    32    24    1
    36    31    26   ar
    37     6     1    1
    38    20    14   ar
    39    13     4    1
    40    18    21    1
    41    18    22    1
@<TRIPOS>MOLECULE
*****
 37 41 0 0 0
SMALL
GASTEIGER

@<TRIPOS>ATOM
      1 N         144.1917  141.4777  163.4745 N.3     1  UNL1       -0.2690
      2 C         144.7901  142.5846  162.6582 C.3     1  UNL1        0.0724
      3 C         144.7692  142.5076  161.1603 C.3     1  UNL1        0.0175
      4 C         144.1497  141.3237  160.4788 C.3     1  UNL1        0.0060
      5 C         143.5513  140.2167  161.2951 C.3     1  UNL1        0.0175
      6 C         143.5722  140.2937  162.7929 C.3     1  UNL1        0.0724
      7 C         144.7482  142.4307  159.6624 C.3     1  UNL1        0.0217
      8 C         144.7272  142.3537  158.1645 C.3     1  UNL1        0.0938
      9 N         144.1078  141.1697  157.4830 N.am    1  UNL1       -0.2748
     10 C         144.0869  141.0927  155.9851 C.2     1  UNL1        0.2668
     11 O         143.4674  139.9087  155.3035 O.2     1  UNL1       -0.2683
     12 C         143.5094  140.0627  158.2993 C.3     1  UNL1        0.0938
     13 C         143.5303  140.1397  159.7972 C.3     1  UNL1        0.0217
     14 C         144.6853  142.1997  155.1688 C.ar    1  UNL1        0.1348
     15 C         143.8064  143.2792  154.6101 C.ar    1  UNL1        0.0250
     16 C         144.4048  144.3861  153.7938 C.ar    1  UNL1        0.0174
     17 C         145.8823  144.4137  153.5361 C.ar    1  UNL1        0.0610
     18 N         146.4808  145.5206  152.7198 N.pl3   1  UNL1       -0.3558
     19 C         146.7613  143.3342  154.0948 C.ar    1  UNL1        0.1130
     20 N         146.1627  142.2271  154.9111 N.ar    1  UNL1       -0.2380
     21 H         145.9039  146.2291  152.3531 H       1  UNL1        0.1424
     22 H         147.4505  145.5387  152.5507 H       1  UNL1        0.1424
     23 C         144.2126  141.5546  164.9724 C.3     1  UNL1        0.0989
     24 C         140.2191  144.0170  164.9359 C.3     1  UNL1        0.1372
     25 C         141.5999  143.4827  164.6952 C.3     1  UNL1        0.0691
     26 C         141.7888  142.2769  165.5672 C.ar    1  UNL1        0.0126
     27 C         142.9486  141.3437  165.7520 C.ar    1  UNL1       -0.0071
     28 C         142.8443  140.1995  166.7164 C.ar    1  UNL1       -0.0030
     29 C         141.5803  139.9886  167.4960 C.ar    1  UNL1        0.0028
     30 C         140.4206  140.9217  167.3111 C.ar    1  UNL1        0.0365
     31 C         140.5248  142.0659  166.3467 C.ar    1  UNL1        0.1340
     32 O         139.5547  143.1413  165.9566 O.3     1  UNL1       -0.4826
     33 C         140.6121  145.0494  163.9212 C.3     1  UNL1        0.0404
     34 C         142.0619  145.2997  163.6288 C.3     1  UNL1        0.0037
     35 C         138.9204  144.7671  164.9645 C.3     1  UNL1        0.0404
     36 C         137.6729  143.4233  163.1239 C.3     1  UNL1        0.0001
     37 C         137.6683  144.1185  164.4531 C.3     1  UNL1        0.0036
@<TRIPOS>BOND
     1    36    37    1
     2    37    35    1
     3    35    24    1
     4    24    33    1
     5    33    34    1
     6    24    25    1
     7    25    26    1
     8    26    27   ar
     9    27    23    1
    10    23     1    1
    11     1     2    1
    12     2     3    1
    13     3     4    1
    14     4     5    1
    15     5     6    1
    16     4     7    1
    17     7     8    1
    18     8     9    1
    19     9    10   am
    20    10    11    2
    21    10    14    1
    22    14    15   ar
    23    15    16   ar
    24    16    17   ar
    25    17    18    1
    26    17    19   ar
    27    19    20   ar
    28     9    12    1
    29    12    13    1
    30    27    28   ar
    31    28    29   ar
    32    29    30   ar
    33    30    31   ar
    34    31    32    1
    35    32    24    1
    36    31    26   ar
    37     6     1    1
    38    20    14   ar
    39    13     4    1
    40    18    21    1
    41    18    22    1
@<TRIPOS>MOLECULE
*****
 37 41 0 0 0
SMALL
GASTEIGER

@<TRIPOS>ATOM
      1 N         138.6557  139.0817  165.3736 N.3     1  UNL1       -0.2690
      2 C         139.3041  137.9776  164.5924 C.3     1  UNL1        0.0724
      3 C         139.3970  138.0706  163.0982 C.3     1  UNL1        0.0175
      4 C         138.8415  139.2677  162.3852 C.3     1  UNL1        0.0060
      5 C         138.1930  140.3718  163.1664 C.3     1  UNL1        0.0175
      6 C         138.1001  140.2788  164.6606 C.3     1  UNL1        0.0724
      7 C         139.4900  138.1635  161.6039 C.3     1  UNL1        0.0217
      8 C         139.5829  138.2565  160.1097 C.3     1  UNL1        0.0938
      9 N         139.0273  139.4536  159.3967 N.am    1  UNL1       -0.2748
     10 C         139.1202  139.5465  157.9024 C.2     1  UNL1        0.2668
     11 O         138.5646  140.7436  157.1894 O.2     1  UNL1       -0.2683
     12 C         138.3788  140.5577  160.1779 C.3     1  UNL1        0.0938
     13 C         138.2859  140.4648  161.6722 C.3     1  UNL1        0.0217
     14 C         139.7687  138.4424  157.1212 C.ar    1  UNL1        0.1348
     15 C         141.2346  138.1692  157.2841 C.ar    1  UNL1        0.0250
     16 C         141.8831  137.0651  156.5028 C.ar    1  UNL1        0.0174
     17 C         141.0657  136.2341  155.5587 C.ar    1  UNL1        0.0610
     18 N         141.7142  135.1300  154.7775 N.pl3   1  UNL1       -0.3558
     19 C         139.5998  136.5073  155.3958 C.ar    1  UNL1        0.1130
     20 N         138.9513  137.6115  156.1771 N.ar    1  UNL1       -0.2380
     21 H         142.6763  134.9507  154.8844 H       1  UNL1        0.1424
     22 H         141.1777  134.5846  154.1578 H       1  UNL1        0.1424
     23 C         138.5627  138.9888  166.8679 C.3     1  UNL1        0.0989
     24 C         142.4765  141.3988  165.9262 C.3     1  UNL1        0.1372
     25 C         141.2752  140.5017  165.8809 C.3     1  UNL1        0.0691
     26 C         140.5681  140.6070  167.1996 C.ar    1  UNL1        0.0126
     27 C         139.3269  139.9510  167.7281 C.ar    1  UNL1       -0.0071
     28 C         138.8501  140.2572  169.1170 C.ar    1  UNL1       -0.0030
     29 C         139.6144  141.2195  169.9772 C.ar    1  UNL1        0.0028
     30 C         140.8555  141.8755  169.4487 C.ar    1  UNL1        0.0365
     31 C         141.3323  141.5692  168.0598 C.ar    1  UNL1        0.1340
     32 O         142.5118  142.0586  167.2728 O.3     1  UNL1       -0.4826
     33 C         142.7021  140.9050  164.5279 C.3     1  UNL1        0.0404
     34 C         142.7015  139.4322  164.2434 C.3     1  UNL1        0.0037
     35 C         143.7249  142.1928  165.6792 C.3     1  UNL1        0.0404
     36 C         143.6805  144.4198  164.3418 C.3     1  UNL1        0.0001
     37 C         143.8978  142.9363  164.3879 C.3     1  UNL1        0.0036
@<TRIPOS>BOND
     1    36    37    1
     2    37    35    1
     3    35    24    1
     4    24    33    1
     5    33    34    1
     6    24    25    1
     7    25    26    1
     8    26    27   ar
     9    27    23    1
    10    23     1    1
    11     1     2    1
    12     2     3    1
    13     3     4    1
    14     4     5    1
    15     5     6    1
    16     4     7    1
    17     7     8    1
    18     8     9    1
    19     9    10   am
    20    10    11    2
    21    10    14    1
    22    14    15   ar
    23    15    16   ar
    24    16    17   ar
    25    17    18    1
    26    17    19   ar
    27    19    20   ar
    28     9    12    1
    29    12    13    1
    30    27    28   ar
    31    28    29   ar
    32    29    30   ar
    33    30    31   ar
    34    31    32    1
    35    32    24    1
    36    31    26   ar
    37     6     1    1
    38    20    14   ar
    39    13     4    1
    40    18    21    1
    41    18    22    1
@<TRIPOS>MOLECULE
*****
 37 41 0 0 0
SMALL
GASTEIGER

@<TRIPOS>ATOM
      1 N         138.3854  139.9028  164.8574 N.3     1  UNL1       -0.2690
      2 C         138.1879  138.8507  163.8067 C.3     1  UNL1        0.0724
      3 C         138.1608  139.2344  162.3569 C.3     1  UNL1        0.0175
      4 C         138.3312  140.6702  161.9578 C.3     1  UNL1        0.0060
      5 C         138.5287  141.7224  163.0085 C.3     1  UNL1        0.0175
      6 C         138.5557  141.3386  164.4583 C.3     1  UNL1        0.0724
      7 C         138.1337  139.6181  160.9070 C.3     1  UNL1        0.0217
      8 C         138.1066  140.0018  159.4572 C.3     1  UNL1        0.0938
      9 N         138.2770  141.4376  159.0581 N.am    1  UNL1       -0.2748
     10 C         138.2499  141.8213  157.6082 C.2     1  UNL1        0.2668
     11 O         138.4203  143.2572  157.2091 O.2     1  UNL1       -0.2683
     12 C         138.4745  142.4898  160.1088 C.3     1  UNL1        0.0938
     13 C         138.5016  142.1061  161.5587 C.3     1  UNL1        0.0217
     14 C         138.0524  140.7692  156.5575 C.ar    1  UNL1        0.1348
     15 C         139.2276  139.9894  156.0469 C.ar    1  UNL1        0.0250
     16 C         139.0302  138.9372  154.9962 C.ar    1  UNL1        0.0174
     17 C         137.6575  138.6649  154.4561 C.ar    1  UNL1        0.0610
     18 N         137.4600  137.6128  153.4054 N.pl3   1  UNL1       -0.3558
     19 C         136.4823  139.4448  154.9668 C.ar    1  UNL1        0.1130
     20 N         136.6798  140.4969  156.0175 N.ar    1  UNL1       -0.2380
     21 H         138.2313  137.1009  153.0703 H       1  UNL1        0.1424
     22 H         136.5591  137.4340  153.0510 H       1  UNL1        0.1424
     23 C         138.4125  139.5191  166.3073 C.3     1  UNL1        0.0989
     24 C         142.9252  139.2149  165.0602 C.3     1  UNL1        0.1372
     25 C         141.4258  139.2147  165.1043 C.3     1  UNL1        0.0691
     26 C         141.0029  139.5911  166.4933 C.ar    1  UNL1        0.0126
     27 C         139.6504  139.7519  167.1217 C.ar    1  UNL1       -0.0071
     28 C         139.5358  140.1456  168.5646 C.ar    1  UNL1       -0.0030
     29 C         140.7738  140.3784  169.3790 C.ar    1  UNL1        0.0028
     30 C         142.1263  140.2176  168.7506 C.ar    1  UNL1        0.0365
     31 C         142.2408  139.8240  167.3077 C.ar    1  UNL1        0.1340
     32 O         143.4289  139.5915  166.4220 O.3     1  UNL1       -0.4826
     33 C         142.7262  138.8212  163.6266 C.3     1  UNL1        0.0404
     34 C         141.7433  137.7443  163.2740 C.3     1  UNL1        0.0037
     35 C         144.3830  139.1329  164.7165 C.3     1  UNL1        0.0404
     36 C         145.5998  141.3020  163.9655 C.3     1  UNL1        0.0001
     37 C         144.9461  139.9953  163.6261 C.3     1  UNL1        0.0036
@<TRIPOS>BOND
     1    36    37    1
     2    37    35    1
     3    35    24    1
     4    24    33    1
     5    33    34    1
     6    24    25    1
     7    25    26    1
     8    26    27   ar
     9    27    23    1
    10    23     1    1
    11     1     2    1
    12     2     3    1
    13     3     4    1
    14     4     5    1
    15     5     6    1
    16     4     7    1
    17     7     8    1
    18     8     9    1
    19     9    10   am
    20    10    11    2
    21    10    14    1
    22    14    15   ar
    23    15    16   ar
    24    16    17   ar
    25    17    18    1
    26    17    19   ar
    27    19    20   ar
    28     9    12    1
    29    12    13    1
    30    27    28   ar
    31    28    29   ar
    32    29    30   ar
    33    30    31   ar
    34    31    32    1
    35    32    24    1
    36    31    26   ar
    37     6     1    1
    38    20    14   ar
    39    13     4    1
    40    18    21    1
    41    18    22    1
