@<TRIPOS>MOLECULE
*****
 37 41 0 0 0
SMALL
GASTEIGER

@<TRIPOS>ATOM
      1 C         142.6902  139.9702  159.5984 C.3     1  UNL1        0.0806
      2 C         142.5603  140.0190  158.1048 C.3     1  UNL1        0.0108
      3 C         142.5492  138.7463  157.3110 C.3     1  UNL1        0.0165
      4 C         142.6682  137.4248  158.0109 C.3     1  UNL1        0.0580
      5 C         142.7981  137.3761  159.5044 C.3     1  UNL1        0.0208
      6 C         142.8091  138.6488  160.2982 C.3     1  UNL1        0.0323
      7 C         142.9391  138.6000  161.7918 C.ar    1  UNL1       -0.0220
      8 C         141.8588  137.9678  162.6184 C.ar    1  UNL1       -0.0038
      9 C         141.9888  137.9190  164.1119 C.ar    1  UNL1        0.0064
     10 C         143.1990  138.5026  164.7789 C.ar    1  UNL1        0.0345
     11 BR        143.3289  138.4538  166.2725 Br      1  UNL1       -0.0490
     12 C         144.2792  139.1349  163.9523 C.ar    1  UNL1        0.0064
     13 C         144.1493  139.1836  162.4588 C.ar    1  UNL1       -0.0038
     14 N         142.6571  136.1521  157.2171 N.3     1  UNL1       -0.2697
     15 C         143.4548  134.9704  157.6834 C.3     1  UNL1        0.1046
     16 C         143.4438  133.6977  156.8896 C.3     1  UNL1        0.1595
     17 O         142.6351  133.6067  155.6295 O.3     1  UNL1       -0.3508
     18 C         141.8374  134.7883  155.1632 C.3     1  UNL1        0.1595
     19 C         141.8485  136.0610  155.9570 C.3     1  UNL1        0.1046
     20 O         143.8294  142.2182  160.2301 O.2     1  UNL1       -0.2751
     21 C         142.7012  141.2429  160.3922 C.2     1  UNL1        0.2227
     22 N         141.5842  141.5403  161.3481 N.am    1  UNL1       -0.2986
     23 H         140.8438  140.9002  161.4545 H       1  UNL1        0.1500
     24 C         141.5953  142.8131  162.1419 C.3     1  UNL1        0.1170
     25 C         142.2458  142.8487  163.4930 C.ar    1  UNL1       -0.0002
     26 C         143.5465  143.5720  163.6803 C.ar    1  UNL1       -0.0001
     27 C         144.1971  143.6076  165.0315 C.ar    1  UNL1        0.0294
     28 C         143.5469  142.9199  166.1952 C.ar    1  UNL1        0.1401
     29 F         144.1975  142.9556  167.5463 F       1  UNL1       -0.2042
     30 C         142.2463  142.1966  166.0079 C.ar    1  UNL1        0.0294
     31 C         141.5957  142.1610  164.6569 C.ar    1  UNL1       -0.0001
     32 C         140.9557  144.0502  161.5845 C.ar    1  UNL1        0.0028
     33 C         140.9337  144.2805  160.1025 C.ar    1  UNL1        0.0183
     34 C         140.2942  145.5176  159.5453 C.ar    1  UNL1        0.0986
     35 N         139.6766  146.5243  160.4700 N.ar    1  UNL1       -0.2423
     36 C         139.6985  146.2939  161.9520 C.ar    1  UNL1        0.0986
     37 C         140.3381  145.0569  162.5093 C.ar    1  UNL1        0.0183
@<TRIPOS>BOND
     1    20    21    2
     2    21    22   am
     3    22    24    1
     4    24    32    1
     5    32    33   ar
     6    33    34   ar
     7    34    35   ar
     8    35    36   ar
     9    36    37   ar
    10    24    25    1
    11    25    26   ar
    12    26    27   ar
    13    27    28   ar
    14    28    29    1
    15    28    30   ar
    16    30    31   ar
    17     1    21    1
    18     1     2    1
    19     2     3    1
    20     3     4    1
    21     4    14    1
    22    14    15    1
    23    15    16    1
    24    16    17    1
    25    17    18    1
    26    18    19    1
    27     4     5    1
    28     5     6    1
    29     6     7    1
    30     7     8   ar
    31     8     9   ar
    32     9    10   ar
    33    10    11    1
    34    10    12   ar
    35    12    13   ar
    36    37    32   ar
    37    31    25   ar
    38     6     1    1
    39    13     7   ar
    40    19    14    1
    41    22    23    1
@<TRIPOS>MOLECULE
*****
 37 41 0 0 0
SMALL
GASTEIGER

@<TRIPOS>ATOM
      1 C         142.9835  139.1336  158.3312 C.3     1  UNL1        0.0806
      2 C         142.9620  138.9141  156.8474 C.3     1  UNL1        0.0108
      3 C         142.8360  137.5247  156.2966 C.3     1  UNL1        0.0165
      4 C         142.7314  136.3547  157.2294 C.3     1  UNL1        0.0580
      5 C         142.7529  136.5741  158.7131 C.3     1  UNL1        0.0208
      6 C         142.8790  137.9636  159.2640 C.3     1  UNL1        0.0323
      7 C         142.9005  138.1831  160.7477 C.ar    1  UNL1       -0.0220
      8 C         144.1252  138.7471  161.4048 C.ar    1  UNL1       -0.0038
      9 C         144.1467  138.9665  162.8885 C.ar    1  UNL1        0.0064
     10 C         142.9434  138.6219  163.7151 C.ar    1  UNL1        0.0345
     11 BR        142.9649  138.8414  165.1989 Br      1  UNL1       -0.0490
     12 C         141.7186  138.0579  163.0580 C.ar    1  UNL1        0.0064
     13 C         141.6972  137.8385  161.5744 C.ar    1  UNL1       -0.0038
     14 N         142.6053  134.9652  156.6786 N.3     1  UNL1       -0.2697
     15 C         141.6984  134.6997  155.5136 C.3     1  UNL1        0.1046
     16 C         141.5724  133.3102  154.9627 C.3     1  UNL1        0.1595
     17 O         142.3532  132.1862  155.5768 O.3     1  UNL1       -0.3508
     18 C         143.2600  132.4517  156.7418 C.3     1  UNL1        0.1595
     19 C         143.3861  133.8412  157.2926 C.3     1  UNL1        0.1046
     20 O         144.4154  141.2544  158.7808 O.2     1  UNL1       -0.2751
     21 C         143.1096  140.5231  158.8821 C.2     1  UNL1        0.2227
     22 N         141.9300  141.1812  159.5341 N.am    1  UNL1       -0.2986
     23 H         141.0730  140.7013  159.6006 H       1  UNL1        0.1500
     24 C         142.0560  142.5707  160.0850 C.3     1  UNL1        0.1170
     25 C         142.5356  142.7795  161.4908 C.ar    1  UNL1       -0.0002
     26 C         141.8064  142.1396  162.6349 C.ar    1  UNL1       -0.0001
     27 C         142.2860  142.3485  164.0408 C.ar    1  UNL1        0.0294
     28 C         143.4948  143.1971  164.3025 C.ar    1  UNL1        0.1401
     29 F         143.9743  143.4059  165.7084 F       1  UNL1       -0.2042
     30 C         144.2240  143.8370  163.1585 C.ar    1  UNL1        0.0294
     31 C         143.7444  143.6282  161.7527 C.ar    1  UNL1       -0.0001
     32 C         141.7025  143.7514  159.2300 C.ar    1  UNL1        0.0028
     33 C         142.5871  144.1376  158.0818 C.ar    1  UNL1        0.0183
     34 C         142.2335  145.3183  157.2268 C.ar    1  UNL1        0.0986
     35 N         140.9955  146.1128  157.5201 N.ar    1  UNL1       -0.2423
     36 C         140.1109  145.7266  158.6683 C.ar    1  UNL1        0.0986
     37 C         140.4645  144.5459  159.5232 C.ar    1  UNL1        0.0183
@<TRIPOS>BOND
     1    20    21    2
     2    21    22   am
     3    22    24    1
     4    24    32    1
     5    32    33   ar
     6    33    34   ar
     7    34    35   ar
     8    35    36   ar
     9    36    37   ar
    10    24    25    1
    11    25    26   ar
    12    26    27   ar
    13    27    28   ar
    14    28    29    1
    15    28    30   ar
    16    30    31   ar
    17     1    21    1
    18     1     2    1
    19     2     3    1
    20     3     4    1
    21     4    14    1
    22    14    15    1
    23    15    16    1
    24    16    17    1
    25    17    18    1
    26    18    19    1
    27     4     5    1
    28     5     6    1
    29     6     7    1
    30     7     8   ar
    31     8     9   ar
    32     9    10   ar
    33    10    11    1
    34    10    12   ar
    35    12    13   ar
    36    37    32   ar
    37    31    25   ar
    38     6     1    1
    39    13     7   ar
    40    19    14    1
    41    22    23    1
@<TRIPOS>MOLECULE
*****
 37 41 0 0 0
SMALL
GASTEIGER

@<TRIPOS>ATOM
      1 C         139.5387  140.7328  160.2092 C.3     1  UNL1        0.0806
      2 C         138.5679  139.9930  159.3373 C.3     1  UNL1        0.0108
      3 C         137.9945  140.6580  158.1211 C.3     1  UNL1        0.0165
      4 C         138.3920  142.0629  157.7769 C.3     1  UNL1        0.0580
      5 C         139.3628  142.8026  158.6488 C.3     1  UNL1        0.0208
      6 C         139.9362  142.1376  159.8650 C.3     1  UNL1        0.0323
      7 C         140.9070  142.8774  160.7369 C.ar    1  UNL1       -0.0220
      8 C         140.4034  143.7421  161.8543 C.ar    1  UNL1       -0.0038
      9 C         141.3742  144.4819  162.7261 C.ar    1  UNL1        0.0064
     10 C         142.8487  144.3570  162.4806 C.ar    1  UNL1        0.0345
     11 BR        143.8195  145.0968  163.3525 Br      1  UNL1       -0.0490
     12 C         143.3523  143.4923  161.3632 C.ar    1  UNL1        0.0064
     13 C         142.3815  142.7525  160.4914 C.ar    1  UNL1       -0.0038
     14 N         137.8187  142.7279  156.5608 N.3     1  UNL1       -0.2697
     15 C         138.4039  144.0170  156.0647 C.3     1  UNL1        0.1046
     16 C         137.8306  144.6820  154.8486 C.3     1  UNL1        0.1595
     17 O         136.6720  144.0580  154.1285 O.3     1  UNL1       -0.3508
     18 C         136.0868  142.7691  154.6246 C.3     1  UNL1        0.1595
     19 C         136.6601  142.1041  155.8407 C.3     1  UNL1        0.1046
     20 O         141.0438  138.9019  161.2736 O.2     1  UNL1       -0.2751
     21 C         140.1121  140.0678  161.4253 C.2     1  UNL1        0.2227
     22 N         139.7538  140.5684  162.7931 N.am    1  UNL1       -0.2986
     23 H         139.1423  141.3336  162.8927 H       1  UNL1        0.1500
     24 C         140.3272  139.9034  164.0092 C.3     1  UNL1        0.1170
     25 C         139.4189  139.2257  164.9919 C.ar    1  UNL1       -0.0002
     26 C         138.9983  137.8035  164.7671 C.ar    1  UNL1       -0.0001
     27 C         138.0900  137.1257  165.7498 C.ar    1  UNL1        0.0294
     28 C         137.6023  137.8702  166.9573 C.ar    1  UNL1        0.1401
     29 F         136.6940  137.1924  167.9399 F       1  UNL1       -0.2042
     30 C         138.0229  139.2923  167.1820 C.ar    1  UNL1        0.0294
     31 C         138.9312  139.9701  166.1994 C.ar    1  UNL1       -0.0001
     32 C         141.8089  139.9161  164.2427 C.ar    1  UNL1        0.0028
     33 C         142.6183  141.1192  163.8588 C.ar    1  UNL1        0.0183
     34 C         144.1000  141.1318  164.0922 C.ar    1  UNL1        0.0986
     35 N         144.7722  139.9415  164.7096 N.ar    1  UNL1       -0.2423
     36 C         143.9627  138.7384  165.0935 C.ar    1  UNL1        0.0986
     37 C         142.4811  138.7257  164.8600 C.ar    1  UNL1        0.0183
@<TRIPOS>BOND
     1    20    21    2
     2    21    22   am
     3    22    24    1
     4    24    32    1
     5    32    33   ar
     6    33    34   ar
     7    34    35   ar
     8    35    36   ar
     9    36    37   ar
    10    24    25    1
    11    25    26   ar
    12    26    27   ar
    13    27    28   ar
    14    28    29    1
    15    28    30   ar
    16    30    31   ar
    17     1    21    1
    18     1     2    1
    19     2     3    1
    20     3     4    1
    21     4    14    1
    22    14    15    1
    23    15    16    1
    24    16    17    1
    25    17    18    1
    26    18    19    1
    27     4     5    1
    28     5     6    1
    29     6     7    1
    30     7     8   ar
    31     8     9   ar
    32     9    10   ar
    33    10    11    1
    34    10    12   ar
    35    12    13   ar
    36    37    32   ar
    37    31    25   ar
    38     6     1    1
    39    13     7   ar
    40    19    14    1
    41    22    23    1
@<TRIPOS>MOLECULE
*****
 37 41 0 0 0
SMALL
GASTEIGER

@<TRIPOS>ATOM
      1 C         139.1770  140.4103  160.0240 C.3     1  UNL1        0.0806
      2 C         139.1974  139.6901  158.7083 C.3     1  UNL1        0.0108
      3 C         138.6928  140.3728  157.4716 C.3     1  UNL1        0.0165
      4 C         138.1679  141.7758  157.5506 C.3     1  UNL1        0.0580
      5 C         138.1475  142.4959  158.8663 C.3     1  UNL1        0.0208
      6 C         138.6521  141.8132  160.1029 C.3     1  UNL1        0.0323
      7 C         138.6317  142.5335  161.4186 C.ar    1  UNL1       -0.0220
      8 C         137.5994  142.1839  162.4491 C.ar    1  UNL1       -0.0038
      9 C         137.5791  142.9041  163.7647 C.ar    1  UNL1        0.0064
     10 C         138.5911  143.9740  164.0497 C.ar    1  UNL1        0.0345
     11 BR        138.5707  144.6943  165.3654 Br      1  UNL1       -0.0490
     12 C         139.6234  144.3236  163.0192 C.ar    1  UNL1        0.0064
     13 C         139.6437  143.6034  161.7036 C.ar    1  UNL1       -0.0038
     14 N         137.6633  142.4585  156.3140 N.3     1  UNL1       -0.2697
     15 C         138.0942  143.8612  156.0029 C.3     1  UNL1        0.1046
     16 C         137.5896  144.5440  154.7663 C.3     1  UNL1        0.1595
     17 O         136.6542  143.8239  153.8407 O.3     1  UNL1       -0.3508
     18 C         136.2234  142.4212  154.1518 C.3     1  UNL1        0.1595
     19 C         136.7280  141.7385  155.3884 C.3     1  UNL1        0.1046
     20 O         139.5938  138.2351  161.3822 O.2     1  UNL1       -0.2751
     21 C         139.6816  139.7276  161.2606 C.2     1  UNL1        0.2227
     22 N         140.2739  140.5373  162.3757 N.am    1  UNL1       -0.2986
     23 H         140.3315  141.5169  162.2959 H       1  UNL1        0.1500
     24 C         140.7784  139.8546  163.6123 C.3     1  UNL1        0.1170
     25 C         139.8075  139.2938  164.6086 C.ar    1  UNL1       -0.0002
     26 C         139.4339  137.8420  164.5564 C.ar    1  UNL1       -0.0001
     27 C         138.4629  137.2811  165.5528 C.ar    1  UNL1        0.0294
     28 C         137.8654  138.1721  166.6012 C.ar    1  UNL1        0.1401
     29 F         136.8944  137.6112  167.5974 F       1  UNL1       -0.2042
     30 C         138.2390  139.6239  166.6533 C.ar    1  UNL1        0.0294
     31 C         139.2099  140.1847  165.6571 C.ar    1  UNL1       -0.0001
     32 C         142.2541  139.7328  163.8527 C.ar    1  UNL1        0.0028
     33 C         142.7608  138.9395  165.0205 C.ar    1  UNL1        0.0183
     34 C         144.2363  138.8177  165.2609 C.ar    1  UNL1        0.0986
     35 N         145.2052  139.4892  164.3334 N.ar    1  UNL1       -0.2423
     36 C         144.6986  140.2825  163.1655 C.ar    1  UNL1        0.0986
     37 C         143.2230  140.4043  162.9252 C.ar    1  UNL1        0.0183
@<TRIPOS>BOND
     1    20    21    2
     2    21    22   am
     3    22    24    1
     4    24    32    1
     5    32    33   ar
     6    33    34   ar
     7    34    35   ar
     8    35    36   ar
     9    36    37   ar
    10    24    25    1
    11    25    26   ar
    12    26    27   ar
    13    27    28   ar
    14    28    29    1
    15    28    30   ar
    16    30    31   ar
    17     1    21    1
    18     1     2    1
    19     2     3    1
    20     3     4    1
    21     4    14    1
    22    14    15    1
    23    15    16    1
    24    16    17    1
    25    17    18    1
    26    18    19    1
    27     4     5    1
    28     5     6    1
    29     6     7    1
    30     7     8   ar
    31     8     9   ar
    32     9    10   ar
    33    10    11    1
    34    10    12   ar
    35    12    13   ar
    36    37    32   ar
    37    31    25   ar
    38     6     1    1
    39    13     7   ar
    40    19    14    1
    41    22    23    1
@<TRIPOS>MOLECULE
*****
 37 41 0 0 0
SMALL
GASTEIGER

@<TRIPOS>ATOM
      1 C         142.3478  140.9633  164.4772 C.3     1  UNL1        0.0806
      2 C         142.8533  139.8524  165.3493 C.3     1  UNL1        0.0108
      3 C         142.5395  139.8484  166.8161 C.3     1  UNL1        0.0165
      4 C         141.7202  140.9553  167.4108 C.3     1  UNL1        0.0580
      5 C         141.2148  142.0662  166.5387 C.3     1  UNL1        0.0208
      6 C         141.5286  142.0701  165.0719 C.3     1  UNL1        0.0323
      7 C         141.0232  143.1810  164.1998 C.ar    1  UNL1       -0.0220
      8 C         139.6000  143.1742  163.7260 C.ar    1  UNL1       -0.0038
      9 C         139.0947  144.2851  162.8539 C.ar    1  UNL1        0.0064
     10 C         140.0124  145.4028  162.4557 C.ar    1  UNL1        0.0345
     11 BR        139.5070  146.5137  161.5836 Br      1  UNL1       -0.0490
     12 C         141.4355  145.4096  162.9296 C.ar    1  UNL1        0.0064
     13 C         141.9409  144.2987  163.8016 C.ar    1  UNL1       -0.0038
     14 N         141.4064  140.9514  168.8776 N.3     1  UNL1       -0.2697
     15 C         142.1152  141.8996  169.7988 C.3     1  UNL1        0.1046
     16 C         141.8014  141.8956  171.2656 C.3     1  UNL1        0.1595
     17 O         140.7788  140.9434  171.8112 O.3     1  UNL1       -0.3508
     18 C         140.0700  139.9953  170.8900 C.3     1  UNL1        0.1595
     19 C         140.3838  139.9993  169.4232 C.3     1  UNL1        0.1046
     20 O         144.0706  141.1885  162.5455 O.2     1  UNL1       -0.2751
     21 C         142.6616  140.9673  163.0104 C.2     1  UNL1        0.2227
     22 N         141.5666  140.7500  162.0086 N.am    1  UNL1       -0.2986
     23 H         140.6420  140.6048  162.3138 H       1  UNL1        0.1500
     24 C         141.8805  140.7540  160.5418 C.3     1  UNL1        0.1170
     25 C         141.8921  142.0465  159.7808 C.ar    1  UNL1       -0.0002
     26 C         143.1382  142.4887  159.0725 C.ar    1  UNL1       -0.0001
     27 C         143.1498  143.7813  158.3115 C.ar    1  UNL1        0.0294
     28 C         141.9153  144.6317  158.2588 C.ar    1  UNL1        0.1401
     29 F         141.9269  145.9242  157.4978 F       1  UNL1       -0.2042
     30 C         140.6691  144.1895  158.9671 C.ar    1  UNL1        0.0294
     31 C         140.6575  142.8970  159.7281 C.ar    1  UNL1       -0.0001
     32 C         142.1827  139.4653  159.8360 C.ar    1  UNL1        0.0028
     33 C         142.8544  138.3455  160.5741 C.ar    1  UNL1        0.0183
     34 C         143.1565  137.0570  159.8683 C.ar    1  UNL1        0.0986
     35 N         142.7870  136.8881  158.4244 N.ar    1  UNL1       -0.2423
     36 C         142.1153  138.0079  157.6862 C.ar    1  UNL1        0.0986
     37 C         141.8131  139.2965  158.3920 C.ar    1  UNL1        0.0183
@<TRIPOS>BOND
     1    20    21    2
     2    21    22   am
     3    22    24    1
     4    24    32    1
     5    32    33   ar
     6    33    34   ar
     7    34    35   ar
     8    35    36   ar
     9    36    37   ar
    10    24    25    1
    11    25    26   ar
    12    26    27   ar
    13    27    28   ar
    14    28    29    1
    15    28    30   ar
    16    30    31   ar
    17     1    21    1
    18     1     2    1
    19     2     3    1
    20     3     4    1
    21     4    14    1
    22    14    15    1
    23    15    16    1
    24    16    17    1
    25    17    18    1
    26    18    19    1
    27     4     5    1
    28     5     6    1
    29     6     7    1
    30     7     8   ar
    31     8     9   ar
    32     9    10   ar
    33    10    11    1
    34    10    12   ar
    35    12    13   ar
    36    37    32   ar
    37    31    25   ar
    38     6     1    1
    39    13     7   ar
    40    19    14    1
    41    22    23    1
@<TRIPOS>MOLECULE
*****
 37 41 0 0 0
SMALL
GASTEIGER

@<TRIPOS>ATOM
      1 C         141.6470  139.9922  159.5182 C.3     1  UNL1        0.0806
      2 C         142.2503  140.3015  158.1801 C.3     1  UNL1        0.0108
      3 C         142.5777  139.1883  157.2296 C.3     1  UNL1        0.0165
      4 C         142.3018  137.7657  157.6172 C.3     1  UNL1        0.0580
      5 C         141.6986  137.4564  158.9552 C.3     1  UNL1        0.0208
      6 C         141.3712  138.5696  159.9057 C.3     1  UNL1        0.0323
      7 C         140.7679  138.2603  161.2439 C.ar    1  UNL1       -0.0220
      8 C         141.6547  138.0389  162.4332 C.ar    1  UNL1       -0.0038
      9 C         141.0514  137.7296  163.7712 C.ar    1  UNL1        0.0064
     10 C         139.5614  137.6416  163.9199 C.ar    1  UNL1        0.0345
     11 BR        138.9581  137.3322  165.2580 Br      1  UNL1       -0.0490
     12 C         138.6746  137.8630  162.7305 C.ar    1  UNL1        0.0064
     13 C         139.2779  138.1723  161.3925 C.ar    1  UNL1       -0.0038
     14 N         142.6292  136.6524  156.6667 N.3     1  UNL1       -0.2697
     15 C         142.3220  136.7989  155.2057 C.3     1  UNL1        0.1046
     16 C         142.6494  135.6856  154.2552 C.3     1  UNL1        0.1595
     17 O         143.2840  134.4259  154.7657 O.3     1  UNL1       -0.3508
     18 C         143.5911  134.2795  156.2265 C.3     1  UNL1        0.1595
     19 C         143.2637  135.3927  157.1770 C.3     1  UNL1        0.1046
     20 O         139.8887  141.4724  160.7296 O.2     1  UNL1       -0.2751
     21 C         141.3196  141.1054  160.4687 C.2     1  UNL1        0.2227
     22 N         142.4230  141.8517  161.1583 N.am    1  UNL1       -0.2986
     23 H         143.3621  141.6108  160.9871 H       1  UNL1        0.1500
     24 C         142.0956  142.9649  162.1088 C.3     1  UNL1        0.1170
     25 C         142.5613  142.8965  163.5330 C.ar    1  UNL1       -0.0002
     26 C         141.7585  142.1394  164.5491 C.ar    1  UNL1       -0.0001
     27 C         142.2243  142.0710  165.9734 C.ar    1  UNL1        0.0294
     28 C         143.4928  142.7595  166.3815 C.ar    1  UNL1        0.1401
     29 F         143.9585  142.6910  167.8057 F       1  UNL1       -0.2042
     30 C         144.2957  143.5165  165.3654 C.ar    1  UNL1        0.0294
     31 C         143.8299  143.5850  163.9412 C.ar    1  UNL1       -0.0001
     32 C         141.3024  144.1467  161.6351 C.ar    1  UNL1        0.0028
     33 C         140.4977  144.9506  162.6129 C.ar    1  UNL1        0.0183
     34 C         139.7046  146.1323  162.1391 C.ar    1  UNL1        0.0986
     35 N         139.7162  146.5101  160.6876 N.ar    1  UNL1       -0.2423
     36 C         140.5209  145.7062  159.7097 C.ar    1  UNL1        0.0986
     37 C         141.3140  144.5245  160.1835 C.ar    1  UNL1        0.0183
@<TRIPOS>BOND
     1    20    21    2
     2    21    22   am
     3    22    24    1
     4    24    32    1
     5    32    33   ar
     6    33    34   ar
     7    34    35   ar
     8    35    36   ar
     9    36    37   ar
    10    24    25    1
    11    25    26   ar
    12    26    27   ar
    13    27    28   ar
    14    28    29    1
    15    28    30   ar
    16    30    31   ar
    17     1    21    1
    18     1     2    1
    19     2     3    1
    20     3     4    1
    21     4    14    1
    22    14    15    1
    23    15    16    1
    24    16    17    1
    25    17    18    1
    26    18    19    1
    27     4     5    1
    28     5     6    1
    29     6     7    1
    30     7     8   ar
    31     8     9   ar
    32     9    10   ar
    33    10    11    1
    34    10    12   ar
    35    12    13   ar
    36    37    32   ar
    37    31    25   ar
    38     6     1    1
    39    13     7   ar
    40    19    14    1
    41    22    23    1
@<TRIPOS>MOLECULE
*****
 37 41 0 0 0
SMALL
GASTEIGER

@<TRIPOS>ATOM
      1 C         139.4579  140.5371  160.3985 C.3     1  UNL1        0.0806
      2 C         138.4875  139.8267  159.5019 C.3     1  UNL1        0.0108
      3 C         137.9363  140.5223  158.2926 C.3     1  UNL1        0.0165
      4 C         138.3555  141.9282  157.9799 C.3     1  UNL1        0.0580
      5 C         139.3258  142.6385  158.8765 C.3     1  UNL1        0.0208
      6 C         139.8770  141.9430  160.0858 C.3     1  UNL1        0.0323
      7 C         140.8473  142.6534  160.9824 C.ar    1  UNL1       -0.0220
      8 C         140.3490  143.4044  162.1814 C.ar    1  UNL1       -0.0038
      9 C         141.3194  144.1147  163.0779 C.ar    1  UNL1        0.0064
     10 C         142.7880  144.0741  162.7754 C.ar    1  UNL1        0.0345
     11 BR        143.7584  144.7845  163.6720 Br      1  UNL1       -0.0490
     12 C         143.2863  143.3231  161.5764 C.ar    1  UNL1        0.0064
     13 C         142.3159  142.6128  160.6799 C.ar    1  UNL1       -0.0038
     14 N         137.8043  142.6237  156.7706 N.3     1  UNL1       -0.2697
     15 C         136.6237  142.0471  156.0467 C.3     1  UNL1        0.1046
     16 C         136.0725  142.7427  154.8374 C.3     1  UNL1        0.1595
     17 O         136.7019  144.0148  154.3520 O.3     1  UNL1       -0.3508
     18 C         137.8824  144.5913  155.0758 C.3     1  UNL1        0.1595
     19 C         138.4336  143.8958  156.2851 C.3     1  UNL1        0.1046
     20 O         140.9322  138.6706  161.4439 O.2     1  UNL1       -0.2751
     21 C         140.0090  139.8416  161.6078 C.2     1  UNL1        0.2227
     22 N         139.6371  140.3169  162.9810 N.am    1  UNL1       -0.2986
     23 H         139.0313  141.0854  163.0886 H       1  UNL1        0.1500
     24 C         140.1883  139.6214  164.1903 C.3     1  UNL1        0.1170
     25 C         141.6714  139.5484  164.4026 C.ar    1  UNL1       -0.0002
     26 C         142.2469  138.5160  165.3262 C.ar    1  UNL1       -0.0001
     27 C         143.7301  138.4430  165.5385 C.ar    1  UNL1        0.0294
     28 C         144.6376  139.4023  164.8272 C.ar    1  UNL1        0.1401
     29 F         146.1207  139.3293  165.0396 F       1  UNL1       -0.2042
     30 C         144.0621  140.4348  163.9037 C.ar    1  UNL1        0.0294
     31 C         142.5790  140.5078  163.6914 C.ar    1  UNL1       -0.0001
     32 C         139.2563  138.9989  165.1873 C.ar    1  UNL1        0.0028
     33 C         138.7859  137.5877  164.9948 C.ar    1  UNL1        0.0183
     34 C         137.8540  136.9652  165.9918 C.ar    1  UNL1        0.0986
     35 N         137.3925  137.7540  167.1813 N.ar    1  UNL1       -0.2423
     36 C         137.8630  139.1652  167.3738 C.ar    1  UNL1        0.0986
     37 C         138.7949  139.7876  166.3768 C.ar    1  UNL1        0.0183
@<TRIPOS>BOND
     1    20    21    2
     2    21    22   am
     3    22    24    1
     4    24    32    1
     5    32    33   ar
     6    33    34   ar
     7    34    35   ar
     8    35    36   ar
     9    36    37   ar
    10    24    25    1
    11    25    26   ar
    12    26    27   ar
    13    27    28   ar
    14    28    29    1
    15    28    30   ar
    16    30    31   ar
    17     1    21    1
    18     1     2    1
    19     2     3    1
    20     3     4    1
    21     4    14    1
    22    14    15    1
    23    15    16    1
    24    16    17    1
    25    17    18    1
    26    18    19    1
    27     4     5    1
    28     5     6    1
    29     6     7    1
    30     7     8   ar
    31     8     9   ar
    32     9    10   ar
    33    10    11    1
    34    10    12   ar
    35    12    13   ar
    36    37    32   ar
    37    31    25   ar
    38     6     1    1
    39    13     7   ar
    40    19    14    1
    41    22    23    1
@<TRIPOS>MOLECULE
*****
 37 41 0 0 0
SMALL
GASTEIGER

@<TRIPOS>ATOM
      1 C         141.6498  138.7539  161.3813 C.3     1  UNL1        0.0806
      2 C         141.5184  137.5460  162.2609 C.3     1  UNL1        0.0108
      3 C         140.9003  137.6728  163.6217 C.3     1  UNL1        0.0165
      4 C         140.4136  139.0076  164.1030 C.3     1  UNL1        0.0580
      5 C         140.5450  140.2155  163.2234 C.3     1  UNL1        0.0208
      6 C         141.1631  140.0886  161.8626 C.3     1  UNL1        0.0323
      7 C         141.2945  141.2966  160.9830 C.ar    1  UNL1       -0.0220
      8 C         142.5956  142.0403  160.9196 C.ar    1  UNL1       -0.0038
      9 C         142.7270  143.2482  160.0400 C.ar    1  UNL1        0.0064
     10 C         141.5572  143.7124  159.2239 C.ar    1  UNL1        0.0345
     11 BR        141.6887  144.9204  158.3443 Br      1  UNL1       -0.0490
     12 C         140.2561  142.9688  159.2872 C.ar    1  UNL1        0.0064
     13 C         140.1248  141.7609  160.1668 C.ar    1  UNL1       -0.0038
     14 N         139.7954  139.1344  165.4638 N.3     1  UNL1       -0.2697
     15 C         138.4369  138.5556  165.7273 C.3     1  UNL1        0.1046
     16 C         137.8188  138.6824  167.0882 C.3     1  UNL1        0.1595
     17 O         138.5592  139.3881  168.1854 O.3     1  UNL1       -0.3508
     18 C         139.9177  139.9668  167.9219 C.3     1  UNL1        0.1595
     19 C         140.5358  139.8400  166.5610 C.3     1  UNL1        0.1046
     20 O         143.7523  138.7667  159.8550 O.2     1  UNL1       -0.2751
     21 C         142.2680  138.6271  160.0205 C.2     1  UNL1        0.2227
     22 N         141.4018  138.3607  158.8252 N.am    1  UNL1       -0.2986
     23 H         140.4276  138.2691  158.9338 H       1  UNL1        0.1500
     24 C         142.0200  138.2339  157.4644 C.3     1  UNL1        0.1170
     25 C         142.6552  139.4275  156.8150 C.ar    1  UNL1       -0.0002
     26 C         143.9498  139.2771  156.0725 C.ar    1  UNL1       -0.0001
     27 C         144.5851  140.4707  155.4230 C.ar    1  UNL1        0.0294
     28 C         143.9257  141.8148  155.5162 C.ar    1  UNL1        0.1401
     29 F         144.5609  143.0084  154.8668 F       1  UNL1       -0.2042
     30 C         142.6311  141.9652  156.2587 C.ar    1  UNL1        0.0294
     31 C         141.9958  140.7716  156.9081 C.ar    1  UNL1       -0.0001
     32 C         142.0028  136.9134  156.7530 C.ar    1  UNL1        0.0028
     33 C         142.9693  135.8363  157.1475 C.ar    1  UNL1        0.0183
     34 C         142.9522  134.5159  156.4361 C.ar    1  UNL1        0.0986
     35 N         141.9685  134.2726  155.3301 N.ar    1  UNL1       -0.2423
     36 C         141.0020  135.3497  154.9356 C.ar    1  UNL1        0.0986
     37 C         141.0192  136.6701  155.6470 C.ar    1  UNL1        0.0183
@<TRIPOS>BOND
     1    20    21    2
     2    21    22   am
     3    22    24    1
     4    24    32    1
     5    32    33   ar
     6    33    34   ar
     7    34    35   ar
     8    35    36   ar
     9    36    37   ar
    10    24    25    1
    11    25    26   ar
    12    26    27   ar
    13    27    28   ar
    14    28    29    1
    15    28    30   ar
    16    30    31   ar
    17     1    21    1
    18     1     2    1
    19     2     3    1
    20     3     4    1
    21     4    14    1
    22    14    15    1
    23    15    16    1
    24    16    17    1
    25    17    18    1
    26    18    19    1
    27     4     5    1
    28     5     6    1
    29     6     7    1
    30     7     8   ar
    31     8     9   ar
    32     9    10   ar
    33    10    11    1
    34    10    12   ar
    35    12    13   ar
    36    37    32   ar
    37    31    25   ar
    38     6     1    1
    39    13     7   ar
    40    19    14    1
    41    22    23    1
@<TRIPOS>MOLECULE
*****
 37 41 0 0 0
SMALL
GASTEIGER

@<TRIPOS>ATOM
      1 C         141.6566  138.7688  161.3757 C.3     1  UNL1        0.0806
      2 C         141.5320  137.5637  162.2603 C.3     1  UNL1        0.0108
      3 C         140.9201  137.6941  163.6236 C.3     1  UNL1        0.0165
      4 C         140.4329  139.0296  164.1024 C.3     1  UNL1        0.0580
      5 C         140.5575  140.2346  163.2179 C.3     1  UNL1        0.0208
      6 C         141.1694  140.1042  161.8546 C.3     1  UNL1        0.0323
      7 C         141.2940  141.3093  160.9700 C.ar    1  UNL1       -0.0220
      8 C         140.1165  141.7739  160.1652 C.ar    1  UNL1       -0.0038
      9 C         140.2412  142.9789  159.2808 C.ar    1  UNL1        0.0064
     10 C         141.5433  143.7193  159.2011 C.ar    1  UNL1        0.0345
     11 BR        141.6679  144.9244  158.3165 Br      1  UNL1       -0.0490
     12 C         142.7207  143.2547  160.0059 C.ar    1  UNL1        0.0064
     13 C         142.5960  142.0497  160.8903 C.ar    1  UNL1       -0.0038
     14 N         139.8211  139.1600  165.4657 N.3     1  UNL1       -0.2697
     15 C         140.5596  139.8827  166.5532 C.3     1  UNL1        0.1046
     16 C         139.9477  140.0131  167.9165 C.3     1  UNL1        0.1595
     17 O         138.5974  139.4208  168.1924 O.3     1  UNL1       -0.3508
     18 C         137.8590  138.6983  167.1049 C.3     1  UNL1        0.1595
     19 C         138.4708  138.5679  165.7416 C.3     1  UNL1        0.1046
     20 O         143.7524  138.7736  159.8403 O.2     1  UNL1       -0.2751
     21 C         142.2684  138.6384  160.0124 C.2     1  UNL1        0.2227
     22 N         141.3963  138.3729  158.8213 N.am    1  UNL1       -0.2986
     23 H         140.4223  138.2842  158.9342 H       1  UNL1        0.1500
     24 C         142.0081  138.2425  157.4579 C.3     1  UNL1        0.1170
     25 C         142.0272  136.9104  156.7687 C.ar    1  UNL1       -0.0002
     26 C         141.0638  136.6287  155.6540 C.ar    1  UNL1       -0.0001
     27 C         141.0829  135.2965  154.9648 C.ar    1  UNL1        0.0294
     28 C         142.0654  134.2460  155.3903 C.ar    1  UNL1        0.1401
     29 F         142.0845  132.9139  154.7011 F       1  UNL1       -0.2042
     30 C         143.0288  134.5276  156.5050 C.ar    1  UNL1        0.0294
     31 C         143.0098  135.8598  157.1942 C.ar    1  UNL1       -0.0001
     32 C         142.6009  139.4443  156.7838 C.ar    1  UNL1        0.0028
     33 C         141.8819  140.7599  156.8282 C.ar    1  UNL1        0.0183
     34 C         142.4747  141.9616  156.1541 C.ar    1  UNL1        0.0986
     35 N         143.7865  141.8477  155.4356 N.ar    1  UNL1       -0.2423
     36 C         144.5055  140.5321  155.3913 C.ar    1  UNL1        0.0986
     37 C         143.9127  139.3303  156.0654 C.ar    1  UNL1        0.0183
@<TRIPOS>BOND
     1    20    21    2
     2    21    22   am
     3    22    24    1
     4    24    32    1
     5    32    33   ar
     6    33    34   ar
     7    34    35   ar
     8    35    36   ar
     9    36    37   ar
    10    24    25    1
    11    25    26   ar
    12    26    27   ar
    13    27    28   ar
    14    28    29    1
    15    28    30   ar
    16    30    31   ar
    17     1    21    1
    18     1     2    1
    19     2     3    1
    20     3     4    1
    21     4    14    1
    22    14    15    1
    23    15    16    1
    24    16    17    1
    25    17    18    1
    26    18    19    1
    27     4     5    1
    28     5     6    1
    29     6     7    1
    30     7     8   ar
    31     8     9   ar
    32     9    10   ar
    33    10    11    1
    34    10    12   ar
    35    12    13   ar
    36    37    32   ar
    37    31    25   ar
    38     6     1    1
    39    13     7   ar
    40    19    14    1
    41    22    23    1
