@<TRIPOS>MOLECULE
*****
 31 33 0 0 0
SMALL
GASTEIGER

@<TRIPOS>ATOM
      1 C         143.1795  140.9377  165.6768 C.2     1  UNL1        0.2654
      2 O         143.7399  142.3140  165.4728 O.2     1  UNL1       -0.2684
      3 N         143.7678  139.7715  164.9392 N.am    1  UNL1       -0.2996
      4 H         143.4000  138.8681  165.0730 H       1  UNL1        0.1498
      5 N         140.6237  140.7972  168.5945 N.ar    1  UNL1       -0.2527
      6 N         141.9387  141.2403  168.0249 N.ar    1  UNL1       -0.1647
      7 C         142.0309  140.7274  166.6184 C.ar    1  UNL1        0.1554
      8 C         140.7730  139.9674  166.3186 C.ar    1  UNL1        0.0411
      9 C         140.3071  139.2416  165.0914 C.ar    1  UNL1        0.0032
     10 C         138.9715  138.5589  165.0855 C.ar    1  UNL1        0.0001
     11 C         138.1018  138.6021  166.3068 C.ar    1  UNL1        0.0015
     12 C         138.5676  139.3278  167.5340 C.ar    1  UNL1        0.0188
     13 C         139.9032  140.0105  167.5400 C.ar    1  UNL1        0.0794
     14 C         139.8093  142.5012  170.3788 C.3     1  UNL1        0.0263
     15 C         140.1178  141.0895  169.9761 C.3     1  UNL1        0.1053
     16 C         139.9205  139.9703  170.9549 C.3     1  UNL1        0.0263
     17 C         144.9164  139.9817  163.9976 C.3     1  UNL1        0.0898
     18 C         144.6741  140.5673  162.6381 C.3     1  UNL1        0.0224
     19 C         145.1016  141.9738  162.3401 C.3     1  UNL1        0.0191
     20 C         144.8593  142.5592  160.9805 C.3     1  UNL1        0.0722
     21 N         144.1893  141.7382  159.9188 N.3     1  UNL1       -0.2715
     22 C         143.7618  140.3316  160.2168 C.3     1  UNL1        0.0722
     23 C         144.0042  139.7461  161.5765 C.3     1  UNL1        0.0191
     24 C         143.9470  142.3237  158.5593 C.3     1  UNL1        0.0911
     25 C         144.9242  142.0725  157.4493 C.3     1  UNL1        0.1084
     26 N         146.1972  142.8626  157.3778 N.3     1  UNL1       -0.1818
     27 H         146.6270  142.8127  158.3015 H       1  UNL1        0.1485
     28 S         147.2580  142.4874  156.3858 S.O2    1  UNL1        0.0426
     29 C         148.3189  142.1122  155.3939 C.3     1  UNL1        0.1957
     30 O         148.3058  142.6413  157.4481 O.2     1  UNL1       -0.1575
     31 O         146.2102  142.3335  155.3236 O.2     1  UNL1       -0.1575
@<TRIPOS>BOND
     1    14    15    1
     2    15    16    1
     3    15     5    1
     4     5     6   ar
     5     6     7   ar
     6     7     1    1
     7     1     2    2
     8     1     3   am
     9     3    17    1
    10    17    18    1
    11    18    19    1
    12    19    20    1
    13    20    21    1
    14    21    24    1
    15    24    25    1
    16    25    26    1
    17    26    28    1
    18    28    29    1
    19    28    30    2
    20    28    31    2
    21    21    22    1
    22    22    23    1
    23     7     8   ar
    24     8     9   ar
    25     9    10   ar
    26    10    11   ar
    27    11    12   ar
    28    12    13   ar
    29    13     5   ar
    30    23    18    1
    31    13     8   ar
    32     3     4    1
    33    26    27    1
@<TRIPOS>MOLECULE
*****
 31 33 0 0 0
SMALL
GASTEIGER

@<TRIPOS>ATOM
      1 C         143.2554  139.8125  164.7258 C.2     1  UNL1        0.2654
      2 O         144.4860  139.0247  165.0645 O.2     1  UNL1       -0.2684
      3 N         143.0820  140.3768  163.3467 N.am    1  UNL1       -0.2996
      4 H         142.2743  140.8938  163.1244 H       1  UNL1        0.1498
      5 N         141.0236  140.8603  167.7235 N.ar    1  UNL1       -0.2527
      6 N         142.3089  140.9442  166.9548 N.ar    1  UNL1       -0.1647
      7 C         142.1981  140.0362  165.7660 C.ar    1  UNL1        0.1554
      8 C         140.8443  139.3911  165.8000 C.ar    1  UNL1        0.0411
      9 C         140.1787  138.4058  164.8856 C.ar    1  UNL1        0.0032
     10 C         138.7873  137.9297  165.1811 C.ar    1  UNL1        0.0001
     11 C         138.0615  138.4390  166.3909 C.ar    1  UNL1        0.0015
     12 C         138.7270  139.4244  167.3053 C.ar    1  UNL1        0.0188
     13 C         140.1184  139.9004  167.0098 C.ar    1  UNL1        0.0794
     14 C         140.5475  143.0974  168.9560 C.3     1  UNL1        0.0263
     15 C         140.7002  141.6054  168.9846 C.3     1  UNL1        0.1053
     16 C         140.5295  140.8586  170.2742 C.3     1  UNL1        0.0263
     17 C         144.1393  140.1531  162.3065 C.3     1  UNL1        0.0898
     18 C         143.7762  139.5352  160.9888 C.3     1  UNL1        0.0224
     19 C         143.3208  138.1072  160.9301 C.3     1  UNL1        0.0191
     20 C         142.9577  137.4894  159.6124 C.3     1  UNL1        0.0722
     21 N         143.0498  138.2995  158.3533 N.3     1  UNL1       -0.2715
     22 C         143.5052  139.7275  158.4120 C.3     1  UNL1        0.0722
     23 C         143.8684  140.3454  159.7298 C.3     1  UNL1        0.0191
     24 C         142.6866  137.6816  157.0357 C.3     1  UNL1        0.0911
     25 C         142.3953  136.2126  156.9510 C.3     1  UNL1        0.1084
     26 N         143.5226  135.2301  156.8326 N.3     1  UNL1       -0.1818
     27 H         144.1548  135.4121  157.6121 H       1  UNL1        0.1485
     28 S         143.2378  133.7575  156.8407 S.O2    1  UNL1        0.0426
     29 C         142.9530  132.2847  156.8488 C.3     1  UNL1        0.1957
     30 O         144.4539  133.5269  157.6879 O.2     1  UNL1       -0.1575
     31 O         142.0216  133.9880  155.9934 O.2     1  UNL1       -0.1575
@<TRIPOS>BOND
     1    14    15    1
     2    15    16    1
     3    15     5    1
     4     5     6   ar
     5     6     7   ar
     6     7     1    1
     7     1     2    2
     8     1     3   am
     9     3    17    1
    10    17    18    1
    11    18    19    1
    12    19    20    1
    13    20    21    1
    14    21    24    1
    15    24    25    1
    16    25    26    1
    17    26    28    1
    18    28    29    1
    19    28    30    2
    20    28    31    2
    21    21    22    1
    22    22    23    1
    23     7     8   ar
    24     8     9   ar
    25     9    10   ar
    26    10    11   ar
    27    11    12   ar
    28    12    13   ar
    29    13     5   ar
    30    23    18    1
    31    13     8   ar
    32     3     4    1
    33    26    27    1
@<TRIPOS>MOLECULE
*****
 31 33 0 0 0
SMALL
GASTEIGER

@<TRIPOS>ATOM
      1 C         143.1937  140.8354  165.6761 C.2     1  UNL1        0.2654
      2 O         143.8074  142.1904  165.4835 O.2     1  UNL1       -0.2684
      3 N         143.7262  139.6561  164.9171 N.am    1  UNL1       -0.2996
      4 H         143.3234  138.7667  165.0435 H       1  UNL1        0.1498
      5 N         140.6587  140.7739  168.6146 N.ar    1  UNL1       -0.2527
      6 N         141.9805  141.1794  168.0330 N.ar    1  UNL1       -0.1647
      7 C         142.0475  140.6594  166.6276 C.ar    1  UNL1        0.1554
      8 C         140.7671  139.9326  166.3407 C.ar    1  UNL1        0.0411
      9 C         140.2719  139.2155  165.1198 C.ar    1  UNL1        0.0032
     10 C         138.9183  138.5692  165.1271 C.ar    1  UNL1        0.0001
     11 C         138.0600  138.6399  166.3552 C.ar    1  UNL1        0.0015
     12 C         138.5552  139.3570  167.5760 C.ar    1  UNL1        0.0188
     13 C         139.9087  140.0034  167.5688 C.ar    1  UNL1        0.0794
     14 C         140.0434  139.9862  171.0128 C.3     1  UNL1        0.0263
     15 C         140.1722  141.0844  169.9992 C.3     1  UNL1        0.1053
     16 C         139.8144  142.4931  170.3701 C.3     1  UNL1        0.0263
     17 C         144.8724  139.8321  163.9656 C.3     1  UNL1        0.0898
     18 C         144.6562  140.5195  162.6501 C.3     1  UNL1        0.0224
     19 C         143.9499  139.8038  161.5370 C.3     1  UNL1        0.0191
     20 C         143.7338  140.4913  160.2214 C.3     1  UNL1        0.0722
     21 N         144.2238  141.8945  160.0190 N.3     1  UNL1       -0.2715
     22 C         144.9300  142.6102  161.1321 C.3     1  UNL1        0.0722
     23 C         145.1462  141.9226  162.4477 C.3     1  UNL1        0.0191
     24 C         144.0076  142.5819  158.7034 C.3     1  UNL1        0.0911
     25 C         142.9062  143.5894  158.5557 C.3     1  UNL1        0.1084
     26 N         141.5877  143.3642  159.2345 N.3     1  UNL1       -0.1818
     27 H         141.7304  142.6175  159.9146 H       1  UNL1        0.1485
     28 S         140.9170  144.4909  159.9628 S.O2    1  UNL1        0.0426
     29 C         140.2462  145.6178  160.6911 C.3     1  UNL1        0.1957
     30 O         142.1655  144.7171  160.7627 O.2     1  UNL1       -0.1575
     31 O         139.6684  144.2647  159.1628 O.2     1  UNL1       -0.1575
@<TRIPOS>BOND
     1    14    15    1
     2    15    16    1
     3    15     5    1
     4     5     6   ar
     5     6     7   ar
     6     7     1    1
     7     1     2    2
     8     1     3   am
     9     3    17    1
    10    17    18    1
    11    18    19    1
    12    19    20    1
    13    20    21    1
    14    21    24    1
    15    24    25    1
    16    25    26    1
    17    26    28    1
    18    28    29    1
    19    28    30    2
    20    28    31    2
    21    21    22    1
    22    22    23    1
    23     7     8   ar
    24     8     9   ar
    25     9    10   ar
    26    10    11   ar
    27    11    12   ar
    28    12    13   ar
    29    13     5   ar
    30    23    18    1
    31    13     8   ar
    32     3     4    1
    33    26    27    1
@<TRIPOS>MOLECULE
*****
 31 33 0 0 0
SMALL
GASTEIGER

@<TRIPOS>ATOM
      1 C         140.8211  143.2921  165.4426 C.2     1  UNL1        0.2654
      2 O         141.8323  144.0202  164.6077 O.2     1  UNL1       -0.2684
      3 N         139.3701  143.6626  165.3556 N.am    1  UNL1       -0.2996
      4 H         138.7063  143.1847  165.9036 H       1  UNL1        0.1498
      5 N         141.5918  140.8444  168.3545 N.ar    1  UNL1       -0.2527
      6 N         140.9604  142.1003  167.8311 N.ar    1  UNL1       -0.1647
      7 C         141.2606  142.1935  166.3644 C.ar    1  UNL1        0.1554
      8 C         142.0776  140.9952  165.9814 C.ar    1  UNL1        0.0411
      9 C         142.6616  140.5556  164.6716 C.ar    1  UNL1        0.0032
     10 C         143.4502  139.2822  164.5917 C.ar    1  UNL1        0.0001
     11 C         143.6549  138.4484  165.8217 C.ar    1  UNL1        0.0015
     12 C         143.0710  138.8880  167.1315 C.ar    1  UNL1        0.0188
     13 C         142.2823  140.1614  167.2114 C.ar    1  UNL1        0.0794
     14 C         142.8143  140.1390  170.5360 C.3     1  UNL1        0.0263
     15 C         141.5416  140.3569  169.7723 C.3     1  UNL1        0.1053
     16 C         140.2190  140.0874  170.4263 C.3     1  UNL1        0.0263
     17 C         138.9305  144.7612  164.4338 C.3     1  UNL1        0.0898
     18 C         139.2259  144.6717  162.9659 C.3     1  UNL1        0.0224
     19 C         138.9194  143.4100  162.2147 C.3     1  UNL1        0.0191
     20 C         139.2148  143.3205  160.7469 C.3     1  UNL1        0.0722
     21 N         139.8169  144.4927  160.0301 N.3     1  UNL1       -0.2715
     22 C         140.1235  145.7543  160.7813 C.3     1  UNL1        0.0722
     23 C         139.8280  145.8438  162.2492 C.3     1  UNL1        0.0191
     24 C         140.1123  144.4031  158.5622 C.3     1  UNL1        0.0911
     25 C         141.4402  143.8852  158.0946 C.3     1  UNL1        0.1084
     26 N         142.6690  144.1152  158.9235 N.3     1  UNL1       -0.1818
     27 H         142.4671  144.9051  159.5365 H       1  UNL1        0.1485
     28 S         143.2027  143.0167  159.7943 S.O2    1  UNL1        0.0426
     29 C         143.7364  141.9180  160.6651 C.3     1  UNL1        0.1957
     30 O         143.2113  142.0875  158.6168 O.2     1  UNL1       -0.1575
     31 O         143.1941  143.9459  160.9718 O.2     1  UNL1       -0.1575
@<TRIPOS>BOND
     1    14    15    1
     2    15    16    1
     3    15     5    1
     4     5     6   ar
     5     6     7   ar
     6     7     1    1
     7     1     2    2
     8     1     3   am
     9     3    17    1
    10    17    18    1
    11    18    19    1
    12    19    20    1
    13    20    21    1
    14    21    24    1
    15    24    25    1
    16    25    26    1
    17    26    28    1
    18    28    29    1
    19    28    30    2
    20    28    31    2
    21    21    22    1
    22    22    23    1
    23     7     8   ar
    24     8     9   ar
    25     9    10   ar
    26    10    11   ar
    27    11    12   ar
    28    12    13   ar
    29    13     5   ar
    30    23    18    1
    31    13     8   ar
    32     3     4    1
    33    26    27    1
@<TRIPOS>MOLECULE
*****
 31 33 0 0 0
SMALL
GASTEIGER

@<TRIPOS>ATOM
      1 C         140.8623  142.8246  164.4698 C.2     1  UNL1        0.2654
      2 O         139.9915  143.9190  163.9278 O.2     1  UNL1       -0.2684
      3 N         142.3208  142.7846  164.1215 N.am    1  UNL1       -0.2996
      4 H         142.8924  142.0663  164.4772 H       1  UNL1        0.1498
      5 N         139.1760  139.7465  166.1272 N.ar    1  UNL1       -0.2527
      6 N         139.6145  140.5015  164.9075 N.ar    1  UNL1       -0.1647
      7 C         140.2747  141.7701  165.3602 C.ar    1  UNL1        0.1554
      8 C         140.2442  141.7990  166.8596 C.ar    1  UNL1        0.0411
      9 C         140.7470  142.8026  167.8546 C.ar    1  UNL1        0.0032
     10 C         140.5708  142.5556  169.3235 C.ar    1  UNL1        0.0001
     11 C         139.8917  141.3049  169.7975 C.ar    1  UNL1        0.0015
     12 C         139.3889  140.3013  168.8026 C.ar    1  UNL1        0.0188
     13 C         139.5651  140.5484  167.3337 C.ar    1  UNL1        0.0794
     14 C         138.8566  137.3597  165.1517 C.3     1  UNL1        0.0263
     15 C         138.4719  138.4221  166.1385 C.3     1  UNL1        0.1053
     16 C         137.3832  138.1599  167.1364 C.3     1  UNL1        0.0263
     17 C         142.9084  143.8391  163.2310 C.3     1  UNL1        0.0898
     18 C         143.2030  143.5279  161.7936 C.3     1  UNL1        0.0224
     19 C         142.2095  143.8886  160.7292 C.3     1  UNL1        0.0191
     20 C         142.5042  143.5773  159.2918 C.3     1  UNL1        0.0722
     21 N         143.7924  142.9054  158.9186 N.3     1  UNL1       -0.2715
     22 C         144.7859  142.5447  159.9830 C.3     1  UNL1        0.0722
     23 C         144.4912  142.8560  161.4205 C.3     1  UNL1        0.0191
     24 C         144.0870  142.5942  157.4812 C.3     1  UNL1        0.0911
     25 C         145.4200  142.0252  157.0949 C.3     1  UNL1        0.1084
     26 N         146.3586  142.8261  156.2418 N.3     1  UNL1       -0.1818
     27 H         146.5256  143.7045  156.7325 H       1  UNL1        0.1485
     28 S         147.7038  142.2694  155.8804 S.O2    1  UNL1        0.0426
     29 C         149.0490  141.7127  155.5190 C.3     1  UNL1        0.1957
     30 O         147.2108  141.9779  154.4941 O.2     1  UNL1       -0.1575
     31 O         148.1968  142.5608  157.2668 O.2     1  UNL1       -0.1575
@<TRIPOS>BOND
     1    14    15    1
     2    15    16    1
     3    15     5    1
     4     5     6   ar
     5     6     7   ar
     6     7     1    1
     7     1     2    2
     8     1     3   am
     9     3    17    1
    10    17    18    1
    11    18    19    1
    12    19    20    1
    13    20    21    1
    14    21    24    1
    15    24    25    1
    16    25    26    1
    17    26    28    1
    18    28    29    1
    19    28    30    2
    20    28    31    2
    21    21    22    1
    22    22    23    1
    23     7     8   ar
    24     8     9   ar
    25     9    10   ar
    26    10    11   ar
    27    11    12   ar
    28    12    13   ar
    29    13     5   ar
    30    23    18    1
    31    13     8   ar
    32     3     4    1
    33    26    27    1
@<TRIPOS>MOLECULE
*****
 31 33 0 0 0
SMALL
GASTEIGER

@<TRIPOS>ATOM
      1 C         143.4625  136.0008  156.0732 C.2     1  UNL1        0.2654
      2 O         144.6377  136.8618  155.7165 O.2     1  UNL1       -0.2684
      3 N         142.3889  136.5334  156.9754 N.am    1  UNL1       -0.2996
      4 H         141.6175  135.9683  157.2095 H       1  UNL1        0.1498
      5 N         142.8492  132.7256  154.0828 N.ar    1  UNL1       -0.2527
      6 N         142.7266  134.2136  154.2268 N.ar    1  UNL1       -0.1647
      7 C         143.3608  134.6071  155.5279 C.ar    1  UNL1        0.1554
      8 C         143.8754  133.3624  156.1880 C.ar    1  UNL1        0.0411
      9 C         144.5910  133.1376  157.4870 C.ar    1  UNL1        0.0032
     10 C         144.9905  131.7499  157.8927 C.ar    1  UNL1        0.0001
     11 C         144.6744  130.5870  156.9996 C.ar    1  UNL1        0.0015
     12 C         143.9587  130.8118  155.7006 C.ar    1  UNL1        0.0188
     13 C         143.5593  132.1995  155.2949 C.ar    1  UNL1        0.0794
     14 C         140.8801  131.8453  152.6344 C.3     1  UNL1        0.0263
     15 C         142.3496  131.9073  152.9292 C.3     1  UNL1        0.1053
     16 C         143.3193  131.1509  152.0704 C.3     1  UNL1        0.0263
     17 C         142.4906  137.9271  157.5207 C.3     1  UNL1        0.0898
     18 C         141.5775  138.3685  158.6258 C.3     1  UNL1        0.0224
     19 C         140.1002  138.4649  158.3847 C.3     1  UNL1        0.0191
     20 C         139.1871  138.9063  159.4899 C.3     1  UNL1        0.0722
     21 N         139.7513  139.2512  160.8363 N.3     1  UNL1       -0.2715
     22 C         141.2286  139.1548  161.0774 C.3     1  UNL1        0.0722
     23 C         142.1418  138.7134  159.9722 C.3     1  UNL1        0.0191
     24 C         138.8382  139.6926  161.9414 C.3     1  UNL1        0.0911
     25 C         137.6675  140.5800  161.6378 C.3     1  UNL1        0.1084
     26 N         137.0991  141.4640  162.7080 N.3     1  UNL1       -0.1818
     27 H         137.2175  140.9693  163.5922 H       1  UNL1        0.1485
     28 S         137.6464  142.8461  162.9083 S.O2    1  UNL1        0.0426
     29 C         138.1938  144.2283  163.1087 C.3     1  UNL1        0.1957
     30 O         137.5643  142.6632  164.3948 O.2     1  UNL1       -0.1575
     31 O         137.7285  143.0290  161.4218 O.2     1  UNL1       -0.1575
@<TRIPOS>BOND
     1    14    15    1
     2    15    16    1
     3    15     5    1
     4     5     6   ar
     5     6     7   ar
     6     7     1    1
     7     1     2    2
     8     1     3   am
     9     3    17    1
    10    17    18    1
    11    18    19    1
    12    19    20    1
    13    20    21    1
    14    21    24    1
    15    24    25    1
    16    25    26    1
    17    26    28    1
    18    28    29    1
    19    28    30    2
    20    28    31    2
    21    21    22    1
    22    22    23    1
    23     7     8   ar
    24     8     9   ar
    25     9    10   ar
    26    10    11   ar
    27    11    12   ar
    28    12    13   ar
    29    13     5   ar
    30    23    18    1
    31    13     8   ar
    32     3     4    1
    33    26    27    1
@<TRIPOS>MOLECULE
*****
 31 33 0 0 0
SMALL
GASTEIGER

@<TRIPOS>ATOM
      1 C         134.3122  140.3083  155.9402 C.2     1  UNL1        0.2654
      2 O         134.7823  138.8928  155.7818 O.2     1  UNL1       -0.2684
      3 N         135.3073  141.4089  156.1610 N.am    1  UNL1       -0.2996
      4 H         134.9987  142.3380  156.2650 H       1  UNL1        0.1498
      5 N         130.7295  141.6468  155.2786 N.ar    1  UNL1       -0.2527
      6 N         132.2078  141.6800  155.0265 N.ar    1  UNL1       -0.1647
      7 C         132.8469  140.6234  155.8780 C.ar    1  UNL1        0.1554
      8 C         131.7637  139.9372  156.6562 C.ar    1  UNL1        0.0411
      9 C         131.7999  138.8181  157.6544 C.ar    1  UNL1        0.0032
     10 C         130.5275  138.3315  158.2820 C.ar    1  UNL1        0.0001
     11 C         129.2188  138.9640  157.9116 C.ar    1  UNL1        0.0015
     12 C         129.1825  140.0831  156.9135 C.ar    1  UNL1        0.0188
     13 C         130.4550  140.5697  156.2858 C.ar    1  UNL1        0.0794
     14 C         129.3983  143.8775  155.2305 C.3     1  UNL1        0.0263
     15 C         129.7054  142.5348  154.6362 C.3     1  UNL1        0.1053
     16 C         128.9883  142.0803  153.3996 C.3     1  UNL1        0.0263
     17 C         136.7725  141.0938  156.2233 C.3     1  UNL1        0.0898
     18 C         137.7325  142.0993  156.7865 C.3     1  UNL1        0.0224
     19 C         138.1408  142.0210  158.2277 C.3     1  UNL1        0.0191
     20 C         139.1009  143.0265  158.7909 C.3     1  UNL1        0.0722
     21 N         139.6526  144.1104  157.9129 N.3     1  UNL1       -0.2715
     22 C         139.2443  144.1887  156.4717 C.3     1  UNL1        0.0722
     23 C         138.2842  143.1831  155.9085 C.3     1  UNL1        0.0191
     24 C         140.6126  145.1159  158.4762 C.3     1  UNL1        0.0911
     25 C         141.3800  144.8020  159.7262 C.3     1  UNL1        0.1084
     26 N         141.1485  145.6071  160.9705 N.3     1  UNL1       -0.1818
     27 H         141.0353  146.5773  160.6766 H       1  UNL1        0.1485
     28 S         139.9881  145.2875  161.8655 S.O2    1  UNL1        0.0426
     29 C         138.8276  144.9678  162.7607 C.3     1  UNL1        0.1957
     30 O         140.6976  144.0563  162.3459 O.2     1  UNL1       -0.1575
     31 O         139.2785  146.5187  161.3852 O.2     1  UNL1       -0.1575
@<TRIPOS>BOND
     1    14    15    1
     2    15    16    1
     3    15     5    1
     4     5     6   ar
     5     6     7   ar
     6     7     1    1
     7     1     2    2
     8     1     3   am
     9     3    17    1
    10    17    18    1
    11    18    19    1
    12    19    20    1
    13    20    21    1
    14    21    24    1
    15    24    25    1
    16    25    26    1
    17    26    28    1
    18    28    29    1
    19    28    30    2
    20    28    31    2
    21    21    22    1
    22    22    23    1
    23     7     8   ar
    24     8     9   ar
    25     9    10   ar
    26    10    11   ar
    27    11    12   ar
    28    12    13   ar
    29    13     5   ar
    30    23    18    1
    31    13     8   ar
    32     3     4    1
    33    26    27    1
@<TRIPOS>MOLECULE
*****
 31 33 0 0 0
SMALL
GASTEIGER

@<TRIPOS>ATOM
      1 C         140.7801  143.3179  165.1298 C.2     1  UNL1        0.2654
      2 O         141.8880  144.1354  164.5349 O.2     1  UNL1       -0.2684
      3 N         139.3514  143.6470  164.8125 N.am    1  UNL1       -0.2996
      4 H         138.6242  143.1105  165.2029 H       1  UNL1        0.1498
      5 N         141.1253  140.6851  167.9608 N.ar    1  UNL1       -0.2527
      6 N         140.5307  141.9479  167.4115 N.ar    1  UNL1       -0.1647
      7 C         141.1007  142.1711  166.0421 C.ar    1  UNL1        0.1554
      8 C         142.0476  141.0463  165.7451 C.ar    1  UNL1        0.0411
      9 C         142.8979  140.7398  164.5481 C.ar    1  UNL1        0.0032
     10 C         143.7635  139.5148  164.5369 C.ar    1  UNL1        0.0001
     11 C         143.7787  138.5963  165.7227 C.ar    1  UNL1        0.0015
     12 C         142.9284  138.9029  166.9198 C.ar    1  UNL1        0.0188
     13 C         142.0628  140.1279  166.9309 C.ar    1  UNL1        0.0794
     14 C         139.4565  140.1900  169.8897 C.3     1  UNL1        0.0263
     15 C         140.8336  140.0848  169.3042 C.3     1  UNL1        0.1053
     16 C         141.9189  139.3794  170.0621 C.3     1  UNL1        0.0263
     17 C         139.0308  144.7938  163.9002 C.3     1  UNL1        0.0898
     18 C         139.3578  144.7037  162.4391 C.3     1  UNL1        0.0224
     19 C         139.0854  143.4353  161.6863 C.3     1  UNL1        0.0191
     20 C         139.4124  143.3453  160.2251 C.3     1  UNL1        0.0722
     21 N         140.0119  144.5238  159.5167 N.3     1  UNL1       -0.2715
     22 C         140.2843  145.7923  160.2695 C.3     1  UNL1        0.0722
     23 C         139.9573  145.8823  161.7307 C.3     1  UNL1        0.0191
     24 C         140.3389  144.4338  158.0556 C.3     1  UNL1        0.0911
     25 C         141.4104  145.3061  157.4716 C.3     1  UNL1        0.1084
     26 N         141.0372  146.5290  156.6872 N.3     1  UNL1       -0.1818
     27 H         141.7738  146.6717  155.9962 H       1  UNL1        0.1485
     28 S         139.7337  146.5760  155.9465 S.O2    1  UNL1        0.0426
     29 C         138.4302  146.6230  155.2057 C.3     1  UNL1        0.1957
     30 O         140.3156  145.7116  154.8676 O.2     1  UNL1       -0.1575
     31 O         139.1518  147.4405  157.0255 O.2     1  UNL1       -0.1575
@<TRIPOS>BOND
     1    14    15    1
     2    15    16    1
     3    15     5    1
     4     5     6   ar
     5     6     7   ar
     6     7     1    1
     7     1     2    2
     8     1     3   am
     9     3    17    1
    10    17    18    1
    11    18    19    1
    12    19    20    1
    13    20    21    1
    14    21    24    1
    15    24    25    1
    16    25    26    1
    17    26    28    1
    18    28    29    1
    19    28    30    2
    20    28    31    2
    21    21    22    1
    22    22    23    1
    23     7     8   ar
    24     8     9   ar
    25     9    10   ar
    26    10    11   ar
    27    11    12   ar
    28    12    13   ar
    29    13     5   ar
    30    23    18    1
    31    13     8   ar
    32     3     4    1
    33    26    27    1
@<TRIPOS>MOLECULE
*****
 31 33 0 0 0
SMALL
GASTEIGER

@<TRIPOS>ATOM
      1 C         141.0964  143.4948  164.8922 C.2     1  UNL1        0.2654
      2 O         142.4707  143.6620  164.3151 O.2     1  UNL1       -0.2684
      3 N         139.9444  144.2682  164.3221 N.am    1  UNL1       -0.2996
      4 H         139.0423  144.1585  164.7009 H       1  UNL1        0.1498
      5 N         141.0404  141.4805  168.2095 N.ar    1  UNL1       -0.2527
      6 N         141.5666  142.6058  167.3688 N.ar    1  UNL1       -0.1647
      7 C         140.8739  142.5543  166.0394 C.ar    1  UNL1        0.1554
      8 C         139.9196  141.3971  166.0584 C.ar    1  UNL1        0.0411
      9 C         138.9702  140.8621  165.0277 C.ar    1  UNL1        0.0032
     10 C         138.1237  139.6634  165.3383 C.ar    1  UNL1        0.0001
     11 C         138.2266  138.9997  166.6795 C.ar    1  UNL1        0.0015
     12 C         139.1760  139.5348  167.7102 C.ar    1  UNL1        0.0188
     13 C         140.0225  140.7335  167.3996 C.ar    1  UNL1        0.0794
     14 C         142.7305  140.4033  169.8628 C.3     1  UNL1        0.0263
     15 C         141.4587  141.1586  169.6136 C.3     1  UNL1        0.1053
     16 C         140.6053  141.5920  170.7684 C.3     1  UNL1        0.0263
     17 C         140.1669  145.2087  163.1750 C.3     1  UNL1        0.0898
     18 C         139.9371  144.7428  161.7678 C.3     1  UNL1        0.0224
     19 C         139.2264  143.4466  161.5136 C.3     1  UNL1        0.0191
     20 C         138.9966  142.9807  160.1064 C.3     1  UNL1        0.0722
     21 N         139.4775  143.8111  158.9534 N.3     1  UNL1       -0.2715
     22 C         140.1882  145.1073  159.2077 C.3     1  UNL1        0.0722
     23 C         140.4180  145.5732  160.6149 C.3     1  UNL1        0.0191
     24 C         139.2476  143.3452  157.5463 C.3     1  UNL1        0.0911
     25 C         138.3270  142.1915  157.2791 C.3     1  UNL1        0.1084
     26 N         136.9034  142.4448  156.8803 N.3     1  UNL1       -0.1818
     27 H         136.8841  143.3546  156.4196 H       1  UNL1        0.1485
     28 S         136.1970  141.4837  155.9707 S.O2    1  UNL1        0.0426
     29 C         135.4905  140.5227  155.0610 C.3     1  UNL1        0.1957
     30 O         136.1762  142.5227  154.8890 O.2     1  UNL1       -0.1575
     31 O         136.2177  140.4447  157.0524 O.2     1  UNL1       -0.1575
@<TRIPOS>BOND
     1    14    15    1
     2    15    16    1
     3    15     5    1
     4     5     6   ar
     5     6     7   ar
     6     7     1    1
     7     1     2    2
     8     1     3   am
     9     3    17    1
    10    17    18    1
    11    18    19    1
    12    19    20    1
    13    20    21    1
    14    21    24    1
    15    24    25    1
    16    25    26    1
    17    26    28    1
    18    28    29    1
    19    28    30    2
    20    28    31    2
    21    21    22    1
    22    22    23    1
    23     7     8   ar
    24     8     9   ar
    25     9    10   ar
    26    10    11   ar
    27    11    12   ar
    28    12    13   ar
    29    13     5   ar
    30    23    18    1
    31    13     8   ar
    32     3     4    1
    33    26    27    1
