@<TRIPOS>MOLECULE
*****
 23 25 0 0 0
SMALL
GASTEIGER

@<TRIPOS>ATOM
      1 C         140.1610  140.7656  167.3905 C.ar    1  UNL1        0.0880
      2 C         139.4453  140.1241  168.5421 C.ar    1  UNL1        0.0076
      3 C         139.3099  140.8578  169.8434 C.ar    1  UNL1        0.0003
      4 C         139.8903  142.2328  169.9931 C.ar    1  UNL1        0.0031
      5 C         140.6061  142.8742  168.8415 C.ar    1  UNL1        0.0376
      6 C         140.7414  142.1406  167.5402 C.ar    1  UNL1        0.1496
      7 C         142.6288  139.1558  166.8256 C.3     1  UNL1        0.1151
      8 N         141.5303  139.2271  165.8067 N.am    1  UNL1       -0.2745
      9 C         140.2964  140.0319  166.0891 C.2     1  UNL1        0.2520
     10 O         139.1979  140.1032  165.0702 O.2     1  UNL1       -0.2698
     11 C         141.6657  138.4935  164.5053 C.3     1  UNL1        0.0928
     12 C         142.5168  138.9104  163.3427 C.3     1  UNL1        0.0383
     13 C         142.3509  137.8887  162.2569 C.3     1  UNL1        0.0704
     14 N         141.3972  136.8405  162.7486 N.3     1  UNL1       -0.2960
     15 C         140.9737  137.2143  164.1381 C.3     1  UNL1        0.0887
     16 H         141.8585  135.9309  162.7602 H       1  UNL1        0.1233
     17 O         141.4572  142.7820  166.3885 O.3     1  UNL1       -0.4533
     18 C         140.6821  143.5418  165.3531 C.ar    1  UNL1        0.1453
     19 C         139.1908  143.6562  165.4669 C.ar    1  UNL1        0.0375
     20 C         138.4157  144.4160  164.4316 C.ar    1  UNL1        0.0031
     21 C         139.1320  145.0615  163.2824 C.ar    1  UNL1        0.0002
     22 C         140.6232  144.9471  163.1687 C.ar    1  UNL1        0.0031
     23 C         141.3983  144.1873  164.2040 C.ar    1  UNL1        0.0375
@<TRIPOS>BOND
     1     7     8    1
     2     8     9   am
     3     9    10    2
     4     9     1    1
     5     1     2   ar
     6     2     3   ar
     7     3     4   ar
     8     4     5   ar
     9     5     6   ar
    10     6    17    1
    11    17    18    1
    12    18    19   ar
    13    19    20   ar
    14    20    21   ar
    15    21    22   ar
    16    22    23   ar
    17    11     8    1
    18    11    12    1
    19    12    13    1
    20    13    14    1
    21    14    15    1
    22     6     1   ar
    23    23    18   ar
    24    15    11    1
    25    14    16    1
@<TRIPOS>MOLECULE
*****
 23 25 0 0 0
SMALL
GASTEIGER

@<TRIPOS>ATOM
      1 C         138.9558  139.0935  165.4941 C.ar    1  UNL1        0.0880
      2 C         139.3063  137.7416  164.9467 C.ar    1  UNL1        0.0076
      3 C         139.0635  137.4327  163.4991 C.ar    1  UNL1        0.0003
      4 C         138.4701  138.4756  162.5989 C.ar    1  UNL1        0.0031
      5 C         138.1196  139.8274  163.1463 C.ar    1  UNL1        0.0376
      6 C         138.3624  140.1363  164.5939 C.ar    1  UNL1        0.1496
      7 C         141.5398  140.3580  166.3451 C.3     1  UNL1        0.1151
      8 N         140.4906  140.0347  167.3672 N.am    1  UNL1       -0.2745
      9 C         139.1986  139.4025  166.9418 C.2     1  UNL1        0.2520
     10 O         138.1495  139.0792  167.9639 O.2     1  UNL1       -0.2698
     11 C         140.7334  140.3437  168.8149 C.3     1  UNL1        0.0928
     12 C         140.1832  141.5170  169.5702 C.3     1  UNL1        0.0383
     13 C         140.6788  141.4322  170.9835 C.3     1  UNL1        0.0704
     14 N         141.5354  140.2064  171.1015 N.3     1  UNL1       -0.2960
     15 C         141.5691  139.5337  169.7612 C.3     1  UNL1        0.0887
     16 H         141.1399  139.5733  171.7966 H       1  UNL1        0.1233
     17 O         138.0119  141.4882  165.1414 O.3     1  UNL1       -0.4533
     18 C         138.5698  142.7245  164.5008 C.ar    1  UNL1        0.1453
     19 C         139.9106  143.2480  164.9229 C.ar    1  UNL1        0.0375
     20 C         140.4686  144.4843  164.2823 C.ar    1  UNL1        0.0031
     21 C         139.6857  145.1970  163.2196 C.ar    1  UNL1        0.0002
     22 C         138.3449  144.6734  162.7976 C.ar    1  UNL1        0.0031
     23 C         137.7870  143.4371  163.4382 C.ar    1  UNL1        0.0375
@<TRIPOS>BOND
     1     7     8    1
     2     8     9   am
     3     9    10    2
     4     9     1    1
     5     1     2   ar
     6     2     3   ar
     7     3     4   ar
     8     4     5   ar
     9     5     6   ar
    10     6    17    1
    11    17    18    1
    12    18    19   ar
    13    19    20   ar
    14    20    21   ar
    15    21    22   ar
    16    22    23   ar
    17    11     8    1
    18    11    12    1
    19    12    13    1
    20    13    14    1
    21    14    15    1
    22     6     1   ar
    23    23    18   ar
    24    15    11    1
    25    14    16    1
@<TRIPOS>MOLECULE
*****
 23 25 0 0 0
SMALL
GASTEIGER

@<TRIPOS>ATOM
      1 C         140.0567  139.2494  165.3585 C.ar    1  UNL1        0.0880
      2 C         139.5930  137.9305  164.8152 C.ar    1  UNL1        0.0076
      3 C         138.4550  137.2071  165.4721 C.ar    1  UNL1        0.0003
      4 C         137.7806  137.8027  166.6723 C.ar    1  UNL1        0.0031
      5 C         138.2443  139.1217  167.2156 C.ar    1  UNL1        0.0376
      6 C         139.3823  139.8451  166.5587 C.ar    1  UNL1        0.1496
      7 C         142.8810  138.6685  166.1866 C.3     1  UNL1        0.1151
      8 N         142.6069  139.6824  165.1157 N.am    1  UNL1       -0.2745
      9 C         141.1948  139.9729  164.7016 C.2     1  UNL1        0.2520
     10 O         140.9207  140.9868  163.6307 O.2     1  UNL1       -0.2698
     11 C         143.7450  140.4058  164.4588 C.3     1  UNL1        0.0928
     12 C         144.2705  141.7569  164.8440 C.3     1  UNL1        0.0383
     13 C         145.4077  142.0913  163.9247 C.3     1  UNL1        0.0704
     14 N         145.5849  140.9468  162.9713 N.3     1  UNL1       -0.2960
     15 C         144.5574  139.9052  163.3014 C.3     1  UNL1        0.0887
     16 H         146.5208  140.5540  163.0722 H       1  UNL1        0.1233
     17 O         139.8460  141.1642  167.1019 O.3     1  UNL1       -0.4533
     18 C         141.0149  141.2196  168.0404 C.ar    1  UNL1        0.1453
     19 C         142.0827  142.2555  167.8480 C.ar    1  UNL1        0.0375
     20 C         143.2516  142.3110  168.7864 C.ar    1  UNL1        0.0031
     21 C         143.3527  141.3305  169.9172 C.ar    1  UNL1        0.0002
     22 C         142.2850  140.2947  170.1095 C.ar    1  UNL1        0.0031
     23 C         141.1161  140.2392  169.1711 C.ar    1  UNL1        0.0375
@<TRIPOS>BOND
     1     7     8    1
     2     8     9   am
     3     9    10    2
     4     9     1    1
     5     1     2   ar
     6     2     3   ar
     7     3     4   ar
     8     4     5   ar
     9     5     6   ar
    10     6    17    1
    11    17    18    1
    12    18    19   ar
    13    19    20   ar
    14    20    21   ar
    15    21    22   ar
    16    22    23   ar
    17    11     8    1
    18    11    12    1
    19    12    13    1
    20    13    14    1
    21    14    15    1
    22     6     1   ar
    23    23    18   ar
    24    15    11    1
    25    14    16    1
@<TRIPOS>MOLECULE
*****
 23 25 0 0 0
SMALL
GASTEIGER

@<TRIPOS>ATOM
      1 C         140.8611  141.8616  167.8437 C.ar    1  UNL1        0.0880
      2 C         140.3671  142.8357  168.8718 C.ar    1  UNL1        0.0076
      3 C         141.3025  143.3554  169.9230 C.ar    1  UNL1        0.0003
      4 C         142.7318  142.9010  169.9459 C.ar    1  UNL1        0.0031
      5 C         143.2258  141.9270  168.9178 C.ar    1  UNL1        0.0376
      6 C         142.2904  141.4072  167.8667 C.ar    1  UNL1        0.1496
      7 C         140.4054  143.4352  165.3305 C.3     1  UNL1        0.1151
      8 N         139.6979  142.1286  165.5359 N.am    1  UNL1       -0.2745
      9 C         139.9257  141.3418  166.7925 C.2     1  UNL1        0.2520
     10 O         139.2182  140.0352  166.9980 O.2     1  UNL1       -0.2698
     11 C         138.7625  141.6088  164.4847 C.3     1  UNL1        0.0928
     12 C         138.9527  140.3608  163.6746 C.3     1  UNL1        0.0383
     13 C         137.7805  140.2264  162.7483 C.3     1  UNL1        0.0704
     14 N         136.8659  141.3914  162.9860 N.3     1  UNL1       -0.2960
     15 C         137.4728  142.2457  164.0592 C.3     1  UNL1        0.0887
     16 H         135.9502  141.0570  163.2863 H       1  UNL1        0.1233
     17 O         142.7844  140.4331  166.8385 O.3     1  UNL1       -0.4533
     18 C         143.6370  140.9114  165.7007 C.ar    1  UNL1        0.1453
     19 C         143.8743  142.3799  165.5071 C.ar    1  UNL1        0.0375
     20 C         144.7269  142.8582  164.3694 C.ar    1  UNL1        0.0031
     21 C         145.3421  141.8680  163.4253 C.ar    1  UNL1        0.0002
     22 C         145.1047  140.3997  163.6190 C.ar    1  UNL1        0.0031
     23 C         144.2521  139.9214  164.7567 C.ar    1  UNL1        0.0375
@<TRIPOS>BOND
     1     7     8    1
     2     8     9   am
     3     9    10    2
     4     9     1    1
     5     1     2   ar
     6     2     3   ar
     7     3     4   ar
     8     4     5   ar
     9     5     6   ar
    10     6    17    1
    11    17    18    1
    12    18    19   ar
    13    19    20   ar
    14    20    21   ar
    15    21    22   ar
    16    22    23   ar
    17    11     8    1
    18    11    12    1
    19    12    13    1
    20    13    14    1
    21    14    15    1
    22     6     1   ar
    23    23    18   ar
    24    15    11    1
    25    14    16    1
@<TRIPOS>MOLECULE
*****
 23 25 0 0 0
SMALL
GASTEIGER

@<TRIPOS>ATOM
      1 C         140.4708  140.1374  166.9687 C.ar    1  UNL1        0.0880
      2 C         139.6854  140.3967  168.2200 C.ar    1  UNL1        0.0076
      3 C         140.3019  140.1303  169.5612 C.ar    1  UNL1        0.0003
      4 C         141.7038  139.6046  169.6511 C.ar    1  UNL1        0.0031
      5 C         142.4893  139.3453  168.3999 C.ar    1  UNL1        0.0376
      6 C         141.8728  139.6117  167.0587 C.ar    1  UNL1        0.1496
      7 C         138.7225  138.0659  165.6832 C.3     1  UNL1        0.1151
      8 N         138.9802  139.3680  164.9847 N.am    1  UNL1       -0.2745
      9 C         139.8543  140.4038  165.6274 C.2     1  UNL1        0.2520
     10 O         140.1120  141.7059  164.9289 O.2     1  UNL1       -0.2698
     11 C         138.3637  139.6344  163.6434 C.3     1  UNL1        0.0928
     12 C         138.4621  138.7492  162.4365 C.3     1  UNL1        0.0383
     13 C         137.6998  139.4005  161.3206 C.3     1  UNL1        0.0704
     14 N         137.1304  140.6882  161.8381 N.3     1  UNL1       -0.2960
     15 C         137.5407  140.8327  163.2736 C.3     1  UNL1        0.0887
     16 H         136.1129  140.6692  161.7692 H       1  UNL1        0.1233
     17 O         142.6583  139.3524  165.8073 O.3     1  UNL1       -0.4533
     18 C         143.5644  140.4137  165.2571 C.ar    1  UNL1        0.1453
     19 C         144.6260  140.0512  164.2613 C.ar    1  UNL1        0.0375
     20 C         145.5321  141.1125  163.7111 C.ar    1  UNL1        0.0031
     21 C         145.3764  142.5363  164.1567 C.ar    1  UNL1        0.0002
     22 C         144.3148  142.8988  165.1524 C.ar    1  UNL1        0.0031
     23 C         143.4088  141.8375  165.7026 C.ar    1  UNL1        0.0375
@<TRIPOS>BOND
     1     7     8    1
     2     8     9   am
     3     9    10    2
     4     9     1    1
     5     1     2   ar
     6     2     3   ar
     7     3     4   ar
     8     4     5   ar
     9     5     6   ar
    10     6    17    1
    11    17    18    1
    12    18    19   ar
    13    19    20   ar
    14    20    21   ar
    15    21    22   ar
    16    22    23   ar
    17    11     8    1
    18    11    12    1
    19    12    13    1
    20    13    14    1
    21    14    15    1
    22     6     1   ar
    23    23    18   ar
    24    15    11    1
    25    14    16    1
@<TRIPOS>MOLECULE
*****
 23 25 0 0 0
SMALL
GASTEIGER

@<TRIPOS>ATOM
      1 C         142.2028  141.7626  167.1422 C.ar    1  UNL1        0.0880
      2 C         143.2521  142.2084  168.1169 C.ar    1  UNL1        0.0076
      3 C         142.8508  142.7234  169.4674 C.ar    1  UNL1        0.0003
      4 C         141.4002  142.7926  169.8430 C.ar    1  UNL1        0.0031
      5 C         140.3510  142.3468  168.8682 C.ar    1  UNL1        0.0376
      6 C         140.7522  141.8318  167.5178 C.ar    1  UNL1        0.1496
      7 C         142.9651  138.8811  166.8014 C.3     1  UNL1        0.1151
      8 N         142.9852  139.8068  165.6213 N.am    1  UNL1       -0.2745
      9 C         142.6040  141.2475  165.7916 C.2     1  UNL1        0.2520
     10 O         142.6241  142.1733  164.6116 O.2     1  UNL1       -0.2698
     11 C         143.3864  139.2918  164.2708 C.3     1  UNL1        0.0928
     12 C         142.5704  138.3896  163.3932 C.3     1  UNL1        0.0383
     13 C         143.3538  138.1287  162.1408 C.3     1  UNL1        0.0704
     14 N         144.6539  138.8697  162.2445 N.3     1  UNL1       -0.2960
     15 C         144.6740  139.5885  163.5609 C.3     1  UNL1        0.0887
     16 H         144.7307  139.5424  161.4816 H       1  UNL1        0.1233
     17 O         139.7029  141.3859  166.5429 O.3     1  UNL1       -0.4533
     18 C         139.1466  142.3566  165.5438 C.ar    1  UNL1        0.1453
     19 C         138.1320  141.8990  164.5382 C.ar    1  UNL1        0.0375
     20 C         137.5756  142.8697  163.5391 C.ar    1  UNL1        0.0031
     21 C         138.0339  144.2980  163.5456 C.ar    1  UNL1        0.0002
     22 C         139.0484  144.7556  164.5512 C.ar    1  UNL1        0.0031
     23 C         139.6048  143.7849  165.5503 C.ar    1  UNL1        0.0375
@<TRIPOS>BOND
     1     7     8    1
     2     8     9   am
     3     9    10    2
     4     9     1    1
     5     1     2   ar
     6     2     3   ar
     7     3     4   ar
     8     4     5   ar
     9     5     6   ar
    10     6    17    1
    11    17    18    1
    12    18    19   ar
    13    19    20   ar
    14    20    21   ar
    15    21    22   ar
    16    22    23   ar
    17    11     8    1
    18    11    12    1
    19    12    13    1
    20    13    14    1
    21    14    15    1
    22     6     1   ar
    23    23    18   ar
    24    15    11    1
    25    14    16    1
@<TRIPOS>MOLECULE
*****
 23 25 0 0 0
SMALL
GASTEIGER

@<TRIPOS>ATOM
      1 C         140.0414  139.0814  165.2007 C.ar    1  UNL1        0.0880
      2 C         139.7037  137.6367  164.9799 C.ar    1  UNL1        0.0076
      3 C         138.5432  137.0190  165.7022 C.ar    1  UNL1        0.0003
      4 C         137.7205  137.8459  166.6453 C.ar    1  UNL1        0.0031
      5 C         138.0583  139.2906  166.8660 C.ar    1  UNL1        0.0376
      6 C         139.2187  139.9083  166.1437 C.ar    1  UNL1        0.1496
      7 C         142.7186  139.2631  166.5422 C.3     1  UNL1        0.1151
      8 N         142.5405  139.7900  165.1491 N.am    1  UNL1       -0.2745
      9 C         141.2019  139.6992  164.4784 C.2     1  UNL1        0.2520
     10 O         141.0237  140.2262  163.0854 O.2     1  UNL1       -0.2698
     11 C         143.7010  140.4078  164.4268 C.3     1  UNL1        0.0928
     12 C         144.3038  141.7511  164.7135 C.3     1  UNL1        0.0383
     13 C         145.4378  141.9643  163.7549 C.3     1  UNL1        0.0704
     14 N         145.5356  140.7528  162.8759 N.3     1  UNL1       -0.2960
     15 C         144.4622  139.7909  163.2912 C.3     1  UNL1        0.0887
     16 H         146.4517  140.3180  162.9864 H       1  UNL1        0.1233
     17 O         139.5565  141.3531  166.3645 O.3     1  UNL1       -0.4533
     18 C         139.0846  142.3910  165.3899 C.ar    1  UNL1        0.1453
     19 C         139.5937  143.7986  165.4881 C.ar    1  UNL1        0.0375
     20 C         139.1218  144.8366  164.5134 C.ar    1  UNL1        0.0031
     21 C         138.1407  144.4669  163.4406 C.ar    1  UNL1        0.0002
     22 C         137.6316  143.0594  163.3424 C.ar    1  UNL1        0.0031
     23 C         138.1036  142.0215  164.3170 C.ar    1  UNL1        0.0375
@<TRIPOS>BOND
     1     7     8    1
     2     8     9   am
     3     9    10    2
     4     9     1    1
     5     1     2   ar
     6     2     3   ar
     7     3     4   ar
     8     4     5   ar
     9     5     6   ar
    10     6    17    1
    11    17    18    1
    12    18    19   ar
    13    19    20   ar
    14    20    21   ar
    15    21    22   ar
    16    22    23   ar
    17    11     8    1
    18    11    12    1
    19    12    13    1
    20    13    14    1
    21    14    15    1
    22     6     1   ar
    23    23    18   ar
    24    15    11    1
    25    14    16    1
@<TRIPOS>MOLECULE
*****
 23 25 0 0 0
SMALL
GASTEIGER

@<TRIPOS>ATOM
      1 C         141.3479  141.9973  167.6825 C.ar    1  UNL1        0.0880
      2 C         140.6842  142.9216  168.6598 C.ar    1  UNL1        0.0076
      3 C         139.8723  142.3612  169.7896 C.ar    1  UNL1        0.0003
      4 C         139.7241  140.8764  169.9422 C.ar    1  UNL1        0.0031
      5 C         140.3877  139.9520  168.9650 C.ar    1  UNL1        0.0376
      6 C         141.1997  140.5124  167.8352 C.ar    1  UNL1        0.1496
      7 C         139.9822  142.9973  165.2057 C.3     1  UNL1        0.1151
      8 N         141.4770  143.0577  165.3142 N.am    1  UNL1       -0.2745
      9 C         142.1599  142.5577  166.5526 C.2     1  UNL1        0.2520
     10 O         143.6547  142.6181  166.6611 O.2     1  UNL1       -0.2698
     11 C         142.2890  143.6182  164.1843 C.3     1  UNL1        0.0928
     12 C         143.1042  142.8250  163.2063 C.3     1  UNL1        0.0383
     13 C         143.7474  143.7867  162.2516 C.3     1  UNL1        0.0704
     14 N         143.3296  145.1742  162.6395 N.3     1  UNL1       -0.2960
     15 C         142.4283  145.0700  163.8340 C.3     1  UNL1        0.0887
     16 H         142.8303  145.6143  161.8665 H       1  UNL1        0.1233
     17 O         141.8634  139.5880  166.8579 O.3     1  UNL1       -0.4533
     18 C         141.0590  138.9489  165.7650 C.ar    1  UNL1        0.1453
     19 C         141.6842  137.9080  164.8842 C.ar    1  UNL1        0.0375
     20 C         140.8798  137.2688  163.7913 C.ar    1  UNL1        0.0031
     21 C         139.4502  137.6706  163.5792 C.ar    1  UNL1        0.0002
     22 C         138.8251  138.7115  164.4599 C.ar    1  UNL1        0.0031
     23 C         139.6295  139.3506  165.5528 C.ar    1  UNL1        0.0375
@<TRIPOS>BOND
     1     7     8    1
     2     8     9   am
     3     9    10    2
     4     9     1    1
     5     1     2   ar
     6     2     3   ar
     7     3     4   ar
     8     4     5   ar
     9     5     6   ar
    10     6    17    1
    11    17    18    1
    12    18    19   ar
    13    19    20   ar
    14    20    21   ar
    15    21    22   ar
    16    22    23   ar
    17    11     8    1
    18    11    12    1
    19    12    13    1
    20    13    14    1
    21    14    15    1
    22     6     1   ar
    23    23    18   ar
    24    15    11    1
    25    14    16    1
@<TRIPOS>MOLECULE
*****
 23 25 0 0 0
SMALL
GASTEIGER

@<TRIPOS>ATOM
      1 C         143.1730  140.6141  165.1662 C.ar    1  UNL1        0.0880
      2 C         144.2446  139.8437  164.4533 C.ar    1  UNL1        0.0076
      3 C         145.4100  140.5667  163.8459 C.ar    1  UNL1        0.0003
      4 C         145.5038  142.0601  163.9514 C.ar    1  UNL1        0.0031
      5 C         144.4323  142.8304  164.6643 C.ar    1  UNL1        0.0376
      6 C         143.2668  142.1074  165.2717 C.ar    1  UNL1        0.1496
      7 C         140.7011  140.1200  163.5397 C.3     1  UNL1        0.1151
      8 N         140.7716  139.6441  164.9604 N.am    1  UNL1       -0.2745
      9 C         142.0075  139.8911  165.7737 C.2     1  UNL1        0.2520
     10 O         142.0780  139.4151  167.1944 O.2     1  UNL1       -0.2698
     11 C         139.6060  138.9211  165.5679 C.3     1  UNL1        0.0928
     12 C         138.6709  139.4702  166.6042 C.3     1  UNL1        0.0383
     13 C         137.6579  138.4105  166.9225 C.3     1  UNL1        0.0704
     14 N         137.9672  137.2066  166.0828 N.3     1  UNL1       -0.2960
     15 C         139.1711  137.5221  165.2457 C.3     1  UNL1        0.0887
     16 H         137.1730  136.9918  165.4799 H       1  UNL1        0.1233
     17 O         142.1952  142.8777  165.9847 O.3     1  UNL1       -0.4533
     18 C         141.0457  143.4539  165.2122 C.ar    1  UNL1        0.1453
     19 C         139.6403  143.0486  165.5449 C.ar    1  UNL1        0.0375
     20 C         138.4908  143.6248  164.7725 C.ar    1  UNL1        0.0031
     21 C         138.7467  144.6063  163.6673 C.ar    1  UNL1        0.0002
     22 C         140.1521  145.0115  163.3347 C.ar    1  UNL1        0.0031
     23 C         141.3016  144.4354  164.1071 C.ar    1  UNL1        0.0375
@<TRIPOS>BOND
     1     7     8    1
     2     8     9   am
     3     9    10    2
     4     9     1    1
     5     1     2   ar
     6     2     3   ar
     7     3     4   ar
     8     4     5   ar
     9     5     6   ar
    10     6    17    1
    11    17    18    1
    12    18    19   ar
    13    19    20   ar
    14    20    21   ar
    15    21    22   ar
    16    22    23   ar
    17    11     8    1
    18    11    12    1
    19    12    13    1
    20    13    14    1
    21    14    15    1
    22     6     1   ar
    23    23    18   ar
    24    15    11    1
    25    14    16    1
