@<TRIPOS>MOLECULE
*****
 33 36 0 0 0
SMALL
GASTEIGER

@<TRIPOS>ATOM
      1 C         137.6324  139.9974  159.8114 C.3     1  UNL1        0.0517
      2 C         138.1276  139.5176  161.1435 C.ar    1  UNL1        0.0582
      3 C         137.8904  138.1598  161.7354 C.ar    1  UNL1        0.1132
      4 N         138.5632  138.1143  163.0752 N.ar    1  UNL1       -0.2256
      5 C         139.2162  139.4439  163.3115 C.ar    1  UNL1        0.1438
      6 N         138.9470  140.3112  162.1176 N.ar    1  UNL1       -0.3106
      7 C         140.0007  139.8372  164.5280 C.ar    1  UNL1        0.0342
      8 C         139.3024  140.4534  165.7038 C.ar    1  UNL1        0.0031
      9 C         140.0869  140.8467  166.9203 C.ar    1  UNL1        0.0031
     10 C         141.5697  140.6237  166.9610 C.ar    1  UNL1        0.0346
     11 C         142.2680  140.0074  165.7852 C.ar    1  UNL1        0.0031
     12 C         141.4835  139.6142  164.5687 C.ar    1  UNL1        0.0031
     13 C         142.3542  141.0169  168.1776 C.ar    1  UNL1        0.1454
     14 C         142.9451  142.3692  168.4465 C.ar    1  UNL1        0.0407
     15 C         143.6416  142.3150  169.7739 C.ar    1  UNL1        0.0438
     16 C         143.4811  140.9293  170.3253 C.ar    1  UNL1        0.1796
     17 O         142.6855  140.1271  169.3387 O.2     1  UNL1       -0.4504
     18 C         139.4150  141.7239  161.9305 C.3     1  UNL1        0.1369
     19 C         139.2426  142.7237  163.0354 C.ar    1  UNL1        0.0344
     20 C         137.8659  143.1156  163.4842 C.ar    1  UNL1        0.0006
     21 C         137.6935  144.1153  164.5890 C.ar    1  UNL1       -0.0001
     22 C         138.8976  144.7232  165.2451 C.ar    1  UNL1        0.0031
     23 C         140.2742  144.3313  164.7964 C.ar    1  UNL1        0.0366
     24 C         140.4467  143.3316  163.6915 C.ar    1  UNL1        0.1363
     25 O         141.8233  142.9397  163.2428 O.3     1  UNL1       -0.4757
     26 C         142.6949  143.9370  162.5388 C.3     1  UNL1        0.2054
     27 C         143.5907  144.8420  163.3318 C.3     1  UNL1        0.0473
     28 C         144.0639  144.4242  164.6925 C.3     1  UNL1        0.0042
     29 C         144.2855  142.9721  164.9964 C.3     1  UNL1        0.0060
     30 C         145.4722  142.2579  164.4205 C.3     1  UNL1        0.0417
     31 C         145.2782  141.2181  163.3569 C.2     1  UNL1        0.0503
     32 O         145.1037  139.7781  163.7387 O.co2   1  UNL1       -0.5492
     33 O         145.2587  141.6184  161.9114 O.co2   1  UNL1       -0.5492
@<TRIPOS>UNITY_ATOM_ATTR
32 1
charge -1
@<TRIPOS>BOND
     1     1     2    1
     2     2     3   ar
     3     3     4   ar
     4     4     5   ar
     5     5     7    1
     6     7     8   ar
     7     8     9   ar
     8     9    10   ar
     9    10    13    1
    10    13    14   ar
    11    14    15   ar
    12    15    16   ar
    13    16    17   ar
    14    10    11   ar
    15    11    12   ar
    16     5     6   ar
    17     6    18    1
    18    18    19    1
    19    19    20   ar
    20    20    21   ar
    21    21    22   ar
    22    22    23   ar
    23    23    24   ar
    24    24    25    1
    25    25    26    1
    26    26    27    1
    27    27    28    1
    28    28    29    1
    29    29    30    1
    30    30    31    1
    31    31    32   ar
    32    31    33   ar
    33     6     2   ar
    34    24    19   ar
    35    12     7   ar
    36    17    13   ar
@<TRIPOS>MOLECULE
*****
 33 36 0 0 0
SMALL
GASTEIGER

@<TRIPOS>ATOM
      1 C         141.5905  138.2491  159.5511 C.3     1  UNL1        0.0517
      2 C         142.3442  138.5595  160.8103 C.ar    1  UNL1        0.0582
      3 C         143.8048  138.3131  161.0471 C.ar    1  UNL1        0.1132
      4 N         144.1329  138.7721  162.4369 N.ar    1  UNL1       -0.2256
      5 C         142.8752  139.3022  163.0591 C.ar    1  UNL1        0.1438
      6 N         141.7697  139.1708  162.0538 N.ar    1  UNL1       -0.3106
      7 C         142.7456  139.8649  164.4436 C.ar    1  UNL1        0.0342
      8 C         142.7611  138.9477  165.6304 C.ar    1  UNL1        0.0031
      9 C         142.6316  139.5104  167.0148 C.ar    1  UNL1        0.0031
     10 C         142.4866  140.9903  167.2123 C.ar    1  UNL1        0.0346
     11 C         142.4712  141.9074  166.0255 C.ar    1  UNL1        0.0031
     12 C         142.6007  141.3447  164.6412 C.ar    1  UNL1        0.0031
     13 C         142.3571  141.5530  168.5968 C.ar    1  UNL1        0.1454
     14 C         143.3247  142.4851  169.2638 C.ar    1  UNL1        0.0407
     15 C         142.8029  142.7906  170.6365 C.ar    1  UNL1        0.0438
     16 C         141.5128  142.0471  170.8180 C.ar    1  UNL1        0.1796
     17 O         141.2373  141.2823  169.5574 O.2     1  UNL1       -0.4504
     18 C         140.3406  139.5789  162.2564 C.3     1  UNL1        0.1369
     19 C         139.6269  139.2082  163.5225 C.ar    1  UNL1        0.0344
     20 C         139.6123  137.7813  163.9850 C.ar    1  UNL1        0.0006
     21 C         138.8986  137.4106  165.2511 C.ar    1  UNL1       -0.0001
     22 C         138.1995  138.4666  166.0548 C.ar    1  UNL1        0.0031
     23 C         138.2141  139.8935  165.5924 C.ar    1  UNL1        0.0366
     24 C         138.9278  140.2643  164.3262 C.ar    1  UNL1        0.1363
     25 O         138.9424  141.6911  163.8638 O.3     1  UNL1       -0.4757
     26 C         137.9139  142.6558  164.3753 C.3     1  UNL1        0.2054
     27 C         138.3158  144.0515  164.7504 C.3     1  UNL1        0.0473
     28 C         139.7682  144.4166  164.8346 C.3     1  UNL1        0.0042
     29 C         140.5479  144.6850  163.5816 C.3     1  UNL1        0.0060
     30 C         142.0210  144.9571  163.6587 C.3     1  UNL1        0.0417
     31 C         142.8890  144.7327  162.4560 C.2     1  UNL1        0.0503
     32 O         142.2664  144.5752  161.1006 O.co2   1  UNL1       -0.5492
     33 O         144.3797  144.6660  162.6090 O.co2   1  UNL1       -0.5492
@<TRIPOS>UNITY_ATOM_ATTR
32 1
charge -1
@<TRIPOS>BOND
     1     1     2    1
     2     2     3   ar
     3     3     4   ar
     4     4     5   ar
     5     5     7    1
     6     7     8   ar
     7     8     9   ar
     8     9    10   ar
     9    10    13    1
    10    13    14   ar
    11    14    15   ar
    12    15    16   ar
    13    16    17   ar
    14    10    11   ar
    15    11    12   ar
    16     5     6   ar
    17     6    18    1
    18    18    19    1
    19    19    20   ar
    20    20    21   ar
    21    21    22   ar
    22    22    23   ar
    23    23    24   ar
    24    24    25    1
    25    25    26    1
    26    26    27    1
    27    27    28    1
    28    28    29    1
    29    29    30    1
    30    30    31    1
    31    31    32   ar
    32    31    33   ar
    33     6     2   ar
    34    24    19   ar
    35    12     7   ar
    36    17    13   ar
@<TRIPOS>MOLECULE
*****
 33 36 0 0 0
SMALL
GASTEIGER

@<TRIPOS>ATOM
      1 C         140.5059  143.7478  159.3648 C.3     1  UNL1        0.0517
      2 C         140.5995  144.0915  160.8220 C.ar    1  UNL1        0.0582
      3 C         140.4054  145.4530  161.4210 C.ar    1  UNL1        0.1132
      4 N         140.5895  145.3368  162.9051 N.ar    1  UNL1       -0.2256
      5 C         140.8974  143.9036  163.2233 C.ar    1  UNL1        0.1438
      6 N         140.9035  143.1340  161.9359 N.ar    1  UNL1       -0.3106
      7 C         141.1540  143.3392  164.5892 C.ar    1  UNL1        0.0342
      8 C         142.5051  142.7835  164.9294 C.ar    1  UNL1        0.0031
      9 C         142.7617  142.2191  166.2953 C.ar    1  UNL1        0.0031
     10 C         141.6672  142.2105  167.3210 C.ar    1  UNL1        0.0346
     11 C         140.3161  142.7663  166.9808 C.ar    1  UNL1        0.0031
     12 C         140.0595  143.3306  165.6149 C.ar    1  UNL1        0.0031
     13 C         141.9238  141.6461  168.6869 C.ar    1  UNL1        0.1454
     14 C         142.7366  140.4242  168.9975 C.ar    1  UNL1        0.0407
     15 C         142.7279  140.2274  170.4845 C.ar    1  UNL1        0.0438
     16 C         141.9097  141.3277  171.0929 C.ar    1  UNL1        0.1796
     17 O         141.4128  142.2045  169.9819 O.2     1  UNL1       -0.4504
     18 C         141.1674  141.6648  161.7882 C.3     1  UNL1        0.1369
     19 C         140.0208  140.7009  161.7105 C.ar    1  UNL1        0.0344
     20 C         138.6514  141.1921  161.3448 C.ar    1  UNL1        0.0006
     21 C         137.5048  140.2283  161.2672 C.ar    1  UNL1       -0.0001
     22 C         137.7274  138.7731  161.5552 C.ar    1  UNL1        0.0031
     23 C         139.0966  138.2818  161.9209 C.ar    1  UNL1        0.0366
     24 C         140.2434  139.2457  161.9985 C.ar    1  UNL1        0.1363
     25 O         141.6126  138.7544  162.3642 O.3     1  UNL1       -0.4757
     26 C         141.7700  137.6481  163.3649 C.3     1  UNL1        0.2054
     27 C         141.1737  137.7852  164.7345 C.3     1  UNL1        0.0473
     28 C         140.9033  139.1472  165.3017 C.3     1  UNL1        0.0042
     29 C         139.4959  139.6594  165.3842 C.3     1  UNL1        0.0060
     30 C         138.3798  138.7290  165.7563 C.3     1  UNL1        0.0417
     31 C         137.9285  138.6321  167.1836 C.2     1  UNL1        0.0503
     32 O         136.7596  137.7637  167.5433 O.co2   1  UNL1       -0.5492
     33 O         138.6463  139.4036  168.2510 O.co2   1  UNL1       -0.5492
@<TRIPOS>UNITY_ATOM_ATTR
32 1
charge -1
@<TRIPOS>BOND
     1     1     2    1
     2     2     3   ar
     3     3     4   ar
     4     4     5   ar
     5     5     7    1
     6     7     8   ar
     7     8     9   ar
     8     9    10   ar
     9    10    13    1
    10    13    14   ar
    11    14    15   ar
    12    15    16   ar
    13    16    17   ar
    14    10    11   ar
    15    11    12   ar
    16     5     6   ar
    17     6    18    1
    18    18    19    1
    19    19    20   ar
    20    20    21   ar
    21    21    22   ar
    22    22    23   ar
    23    23    24   ar
    24    24    25    1
    25    25    26    1
    26    26    27    1
    27    27    28    1
    28    28    29    1
    29    29    30    1
    30    30    31    1
    31    31    32   ar
    32    31    33   ar
    33     6     2   ar
    34    24    19   ar
    35    12     7   ar
    36    17    13   ar
@<TRIPOS>MOLECULE
*****
 33 36 0 0 0
SMALL
GASTEIGER

@<TRIPOS>ATOM
      1 C         143.0814  139.9354  158.5914 C.3     1  UNL1        0.0517
      2 C         142.4861  139.3622  159.8433 C.ar    1  UNL1        0.0582
      3 C         142.0535  137.9398  160.0428 C.ar    1  UNL1        0.1132
      4 N         141.5190  137.8094  161.4383 N.ar    1  UNL1       -0.2256
      5 C         141.6212  139.1511  162.1012 C.ar    1  UNL1        0.1438
      6 N         142.2189  140.1108  161.1154 N.ar    1  UNL1       -0.3106
      7 C         141.1997  139.4760  163.5036 C.ar    1  UNL1        0.0342
      8 C         142.1034  139.1448  164.6541 C.ar    1  UNL1        0.0031
      9 C         141.6819  139.4697  166.0565 C.ar    1  UNL1        0.0031
     10 C         140.3567  140.1258  166.3084 C.ar    1  UNL1        0.0346
     11 C         139.4530  140.4570  165.1579 C.ar    1  UNL1        0.0031
     12 C         139.8746  140.1321  163.7555 C.ar    1  UNL1        0.0031
     13 C         139.9352  140.4507  167.7108 C.ar    1  UNL1        0.1454
     14 C         140.3258  141.6727  168.4881 C.ar    1  UNL1        0.0407
     15 C         139.6811  141.5880  169.8399 C.ar    1  UNL1        0.0438
     16 C         138.8921  140.3135  169.8980 C.ar    1  UNL1        0.1796
     17 O         139.0491  139.6107  168.5822 O.2     1  UNL1       -0.4504
     18 C         142.5001  141.5639  161.3590 C.3     1  UNL1        0.1369
     19 C         143.4276  141.9734  162.4643 C.ar    1  UNL1        0.0344
     20 C         144.5967  141.1046  162.8230 C.ar    1  UNL1        0.0006
     21 C         145.5243  141.5141  163.9283 C.ar    1  UNL1       -0.0001
     22 C         145.2829  142.7923  164.6751 C.ar    1  UNL1        0.0031
     23 C         144.1139  143.6612  164.3166 C.ar    1  UNL1        0.0366
     24 C         143.1862  143.2517  163.2112 C.ar    1  UNL1        0.1363
     25 O         142.0172  144.1205  162.8526 O.3     1  UNL1       -0.4757
     26 C         141.1859  144.7433  163.9347 C.3     1  UNL1        0.2054
     27 C         140.3677  143.8759  164.8449 C.3     1  UNL1        0.0473
     28 C         139.0703  144.3849  165.3996 C.3     1  UNL1        0.0042
     29 C         137.7793  144.0545  164.7111 C.3     1  UNL1        0.0060
     30 C         137.6873  144.1255  163.2156 C.3     1  UNL1        0.0417
     31 C         137.9502  142.9015  162.3891 C.2     1  UNL1        0.0503
     32 O         137.0359  141.7169  162.4914 O.co2   1  UNL1       -0.5492
     33 O         139.1274  142.8624  161.4604 O.co2   1  UNL1       -0.5492
@<TRIPOS>UNITY_ATOM_ATTR
32 1
charge -1
@<TRIPOS>BOND
     1     1     2    1
     2     2     3   ar
     3     3     4   ar
     4     4     5   ar
     5     5     7    1
     6     7     8   ar
     7     8     9   ar
     8     9    10   ar
     9    10    13    1
    10    13    14   ar
    11    14    15   ar
    12    15    16   ar
    13    16    17   ar
    14    10    11   ar
    15    11    12   ar
    16     5     6   ar
    17     6    18    1
    18    18    19    1
    19    19    20   ar
    20    20    21   ar
    21    21    22   ar
    22    22    23   ar
    23    23    24   ar
    24    24    25    1
    25    25    26    1
    26    26    27    1
    27    27    28    1
    28    28    29    1
    29    29    30    1
    30    30    31    1
    31    31    32   ar
    32    31    33   ar
    33     6     2   ar
    34    24    19   ar
    35    12     7   ar
    36    17    13   ar
@<TRIPOS>MOLECULE
*****
 33 36 0 0 0
SMALL
GASTEIGER

@<TRIPOS>ATOM
      1 C         139.8748  143.6933  159.4063 C.3     1  UNL1        0.0517
      2 C         140.3014  143.9509  160.8212 C.ar    1  UNL1        0.0582
      3 C         140.6666  145.2844  161.4030 C.ar    1  UNL1        0.1132
      4 N         141.0286  145.0779  162.8439 N.ar    1  UNL1       -0.2256
      5 C         140.8871  143.6168  163.1526 C.ar    1  UNL1        0.1438
      6 N         140.4377  142.9203  161.9025 N.ar    1  UNL1       -0.3106
      7 C         141.1491  142.9664  164.4787 C.ar    1  UNL1        0.0342
      8 C         140.1727  143.1383  165.6043 C.ar    1  UNL1        0.0031
      9 C         140.4347  142.4880  166.9303 C.ar    1  UNL1        0.0031
     10 C         141.6731  141.6657  167.1307 C.ar    1  UNL1        0.0346
     11 C         142.6495  141.4938  166.0052 C.ar    1  UNL1        0.0031
     12 C         142.3875  142.1442  164.6792 C.ar    1  UNL1        0.0031
     13 C         141.9351  141.0153  168.4568 C.ar    1  UNL1        0.1454
     14 C         142.3354  139.5861  168.6741 C.ar    1  UNL1        0.0407
     15 C         142.4905  139.3674  170.1500 C.ar    1  UNL1        0.0438
     16 C         142.1860  140.6615  170.8448 C.ar    1  UNL1        0.1796
     17 O         141.8428  141.6799  169.7984 O.2     1  UNL1       -0.4504
     18 C         140.1713  141.4512  161.7588 C.3     1  UNL1        0.1369
     19 C         141.2811  140.5228  161.3632 C.ar    1  UNL1        0.0344
     20 C         142.6944  141.0228  161.3107 C.ar    1  UNL1        0.0006
     21 C         143.8041  140.0946  160.9152 C.ar    1  UNL1       -0.0001
     22 C         143.5008  138.6662  160.5720 C.ar    1  UNL1        0.0031
     23 C         142.0876  138.1662  160.6245 C.ar    1  UNL1        0.0366
     24 C         140.9777  139.0945  161.0201 C.ar    1  UNL1        0.1363
     25 O         139.5645  138.5944  161.0726 O.3     1  UNL1       -0.4757
     26 C         138.9759  138.1452  162.3770 C.3     1  UNL1        0.2054
     27 C         139.8481  137.4927  163.4083 C.3     1  UNL1        0.0473
     28 C         140.1129  138.1843  164.7128 C.3     1  UNL1        0.0042
     29 C         139.4914  139.5204  164.9930 C.3     1  UNL1        0.0060
     30 C         138.1975  139.6022  165.7474 C.3     1  UNL1        0.0417
     31 C         138.0510  138.8976  167.0636 C.2     1  UNL1        0.0503
     32 O         137.1406  137.7115  167.1820 O.co2   1  UNL1       -0.5492
     33 O         138.8149  139.3794  168.2612 O.co2   1  UNL1       -0.5492
@<TRIPOS>UNITY_ATOM_ATTR
32 1
charge -1
@<TRIPOS>BOND
     1     1     2    1
     2     2     3   ar
     3     3     4   ar
     4     4     5   ar
     5     5     7    1
     6     7     8   ar
     7     8     9   ar
     8     9    10   ar
     9    10    13    1
    10    13    14   ar
    11    14    15   ar
    12    15    16   ar
    13    16    17   ar
    14    10    11   ar
    15    11    12   ar
    16     5     6   ar
    17     6    18    1
    18    18    19    1
    19    19    20   ar
    20    20    21   ar
    21    21    22   ar
    22    22    23   ar
    23    23    24   ar
    24    24    25    1
    25    25    26    1
    26    26    27    1
    27    27    28    1
    28    28    29    1
    29    29    30    1
    30    30    31    1
    31    31    32   ar
    32    31    33   ar
    33     6     2   ar
    34    24    19   ar
    35    12     7   ar
    36    17    13   ar
@<TRIPOS>MOLECULE
*****
 33 36 0 0 0
SMALL
GASTEIGER

@<TRIPOS>ATOM
      1 C         143.4734  140.0528  159.1621 C.3     1  UNL1        0.0517
      2 C         143.4208  140.8974  160.4006 C.ar    1  UNL1        0.0582
      3 C         144.1147  142.2121  160.6014 C.ar    1  UNL1        0.1132
      4 N         143.7879  142.7027  161.9807 N.ar    1  UNL1       -0.2256
      5 C         142.8921  141.6914  162.6323 C.ar    1  UNL1        0.1438
      6 N         142.6652  140.5756  161.6558 N.ar    1  UNL1       -0.3106
      7 C         142.3230  141.7802  164.0174 C.ar    1  UNL1        0.0342
      8 C         142.6326  140.7133  165.0253 C.ar    1  UNL1        0.0031
      9 C         142.0635  140.8022  166.4103 C.ar    1  UNL1        0.0031
     10 C         141.1848  141.9579  166.7874 C.ar    1  UNL1        0.0346
     11 C         140.8752  143.0248  165.7795 C.ar    1  UNL1        0.0031
     12 C         141.4443  142.9359  164.3945 C.ar    1  UNL1        0.0031
     13 C         140.6158  142.0468  168.1724 C.ar    1  UNL1        0.1454
     14 C         139.7768  141.0038  168.8495 C.ar    1  UNL1        0.0407
     15 C         139.4282  141.5065  170.2190 C.ar    1  UNL1        0.0438
     16 C         140.0518  142.8603  170.3884 C.ar    1  UNL1        0.1796
     17 O         140.7857  143.1941  169.1236 O.2     1  UNL1       -0.4504
     18 C         141.8295  139.3528  161.8928 C.3     1  UNL1        0.1369
     19 C         140.3882  139.3372  161.4775 C.ar    1  UNL1        0.0344
     20 C         139.9138  140.2445  160.3811 C.ar    1  UNL1        0.0006
     21 C         138.4726  140.2290  159.9657 C.ar    1  UNL1       -0.0001
     22 C         137.5057  139.3063  160.6466 C.ar    1  UNL1        0.0031
     23 C         137.9801  138.3990  161.7429 C.ar    1  UNL1        0.0366
     24 C         139.4213  138.4145  162.1583 C.ar    1  UNL1        0.1363
     25 O         139.8957  137.5072  163.2546 O.3     1  UNL1       -0.4757
     26 C         139.9406  138.0013  164.6702 C.3     1  UNL1        0.2054
     27 C         138.6674  138.3430  165.3860 C.3     1  UNL1        0.0473
     28 C         138.2461  139.7760  165.5242 C.3     1  UNL1        0.0042
     29 C         138.5624  140.7589  164.4362 C.3     1  UNL1        0.0060
     30 C         137.4513  141.4649  163.7171 C.3     1  UNL1        0.0417
     31 C         137.6709  142.8427  163.1661 C.2     1  UNL1        0.0503
     32 O         137.9078  143.9941  164.0978 O.co2   1  UNL1       -0.5492
     33 O         137.6534  143.0690  161.6834 O.co2   1  UNL1       -0.5492
@<TRIPOS>UNITY_ATOM_ATTR
32 1
charge -1
@<TRIPOS>BOND
     1     1     2    1
     2     2     3   ar
     3     3     4   ar
     4     4     5   ar
     5     5     7    1
     6     7     8   ar
     7     8     9   ar
     8     9    10   ar
     9    10    13    1
    10    13    14   ar
    11    14    15   ar
    12    15    16   ar
    13    16    17   ar
    14    10    11   ar
    15    11    12   ar
    16     5     6   ar
    17     6    18    1
    18    18    19    1
    19    19    20   ar
    20    20    21   ar
    21    21    22   ar
    22    22    23   ar
    23    23    24   ar
    24    24    25    1
    25    25    26    1
    26    26    27    1
    27    27    28    1
    28    28    29    1
    29    29    30    1
    30    30    31    1
    31    31    32   ar
    32    31    33   ar
    33     6     2   ar
    34    24    19   ar
    35    12     7   ar
    36    17    13   ar
@<TRIPOS>MOLECULE
*****
 33 36 0 0 0
SMALL
GASTEIGER

@<TRIPOS>ATOM
      1 C         139.7677  141.4562  159.2896 C.3     1  UNL1        0.0517
      2 C         139.2848  141.6873  160.6908 C.ar    1  UNL1        0.0582
      3 C         137.9421  142.2296  161.0825 C.ar    1  UNL1        0.1132
      4 N         137.8873  142.2941  162.5801 N.ar    1  UNL1       -0.2256
      5 C         139.1959  141.7918  163.1140 C.ar    1  UNL1        0.1438
      6 N         140.0596  141.4167  161.9463 N.ar    1  UNL1       -0.3106
      7 C         139.5744  141.6834  164.5614 C.ar    1  UNL1        0.0342
      8 C         140.3966  142.7607  165.2043 C.ar    1  UNL1        0.0031
      9 C         140.7751  142.6524  166.6517 C.ar    1  UNL1        0.0031
     10 C         140.3313  141.4667  167.4562 C.ar    1  UNL1        0.0346
     11 C         139.5091  140.3894  166.8134 C.ar    1  UNL1        0.0031
     12 C         139.1306  140.4978  165.3660 C.ar    1  UNL1        0.0031
     13 C         140.7098  141.3584  168.9037 C.ar    1  UNL1        0.1454
     14 C         139.9506  140.6115  169.9600 C.ar    1  UNL1        0.0407
     15 C         140.6854  140.7694  171.2581 C.ar    1  UNL1        0.0438
     16 C         141.8988  141.6140  171.0040 C.ar    1  UNL1        0.1796
     17 O         141.9138  141.9780  169.5489 O.2     1  UNL1       -0.4504
     18 C         141.4534  140.8675  162.0211 C.3     1  UNL1        0.1369
     19 C         141.8608  140.0109  163.1830 C.ar    1  UNL1        0.0344
     20 C         141.2074  138.6778  163.3975 C.ar    1  UNL1        0.0006
     21 C         141.6147  137.8212  164.5594 C.ar    1  UNL1       -0.0001
     22 C         142.6755  138.2975  165.5069 C.ar    1  UNL1        0.0031
     23 C         143.3289  139.6306  165.2925 C.ar    1  UNL1        0.0366
     24 C         142.9216  140.4873  164.1306 C.ar    1  UNL1        0.1363
     25 O         143.5750  141.8203  163.9161 O.3     1  UNL1       -0.4757
     26 C         144.1640  142.5625  165.0790 C.3     1  UNL1        0.2054
     27 C         144.1511  144.0625  165.0955 C.3     1  UNL1        0.0473
     28 C         143.8052  144.8232  163.8499 C.3     1  UNL1        0.0042
     29 C         142.3785  145.1894  163.5665 C.3     1  UNL1        0.0060
     30 C         141.7173  144.7111  162.3080 C.3     1  UNL1        0.0417
     31 C         140.3027  145.1088  162.0062 C.2     1  UNL1        0.0503
     32 O         139.8442  145.2270  160.5830 O.co2   1  UNL1       -0.5492
     33 O         139.3468  145.3883  163.1278 O.co2   1  UNL1       -0.5492
@<TRIPOS>UNITY_ATOM_ATTR
32 1
charge -1
@<TRIPOS>BOND
     1     1     2    1
     2     2     3   ar
     3     3     4   ar
     4     4     5   ar
     5     5     7    1
     6     7     8   ar
     7     8     9   ar
     8     9    10   ar
     9    10    13    1
    10    13    14   ar
    11    14    15   ar
    12    15    16   ar
    13    16    17   ar
    14    10    11   ar
    15    11    12   ar
    16     5     6   ar
    17     6    18    1
    18    18    19    1
    19    19    20   ar
    20    20    21   ar
    21    21    22   ar
    22    22    23   ar
    23    23    24   ar
    24    24    25    1
    25    25    26    1
    26    26    27    1
    27    27    28    1
    28    28    29    1
    29    29    30    1
    30    30    31    1
    31    31    32   ar
    32    31    33   ar
    33     6     2   ar
    34    24    19   ar
    35    12     7   ar
    36    17    13   ar
@<TRIPOS>MOLECULE
*****
 33 36 0 0 0
SMALL
GASTEIGER

@<TRIPOS>ATOM
      1 C         143.7183  139.7907  158.9366 C.3     1  UNL1        0.0517
      2 C         143.0550  139.2455  160.1665 C.ar    1  UNL1        0.0582
      3 C         142.6235  137.8247  160.3793 C.ar    1  UNL1        0.1132
      4 N         142.0085  137.7266  161.7439 N.ar    1  UNL1       -0.2256
      5 C         142.0600  139.0866  162.3745 C.ar    1  UNL1        0.1438
      6 N         142.7067  140.0254  161.3996 N.ar    1  UNL1       -0.3106
      7 C         141.5535  139.4450  163.7403 C.ar    1  UNL1        0.0342
      8 C         140.0999  139.7541  163.9439 C.ar    1  UNL1        0.0031
      9 C         139.5936  140.1124  165.3096 C.ar    1  UNL1        0.0031
     10 C         140.5408  140.1617  166.4716 C.ar    1  UNL1        0.0346
     11 C         141.9944  139.8526  166.2680 C.ar    1  UNL1        0.0031
     12 C         142.5007  139.4942  164.9023 C.ar    1  UNL1        0.0031
     13 C         140.0344  140.5200  167.8374 C.ar    1  UNL1        0.1454
     14 C         140.4062  141.7427  168.6228 C.ar    1  UNL1        0.0407
     15 C         139.6689  141.6970  169.9283 C.ar    1  UNL1        0.0438
     16 C         138.8413  140.4461  169.9496 C.ar    1  UNL1        0.1796
     17 O         139.0672  139.7187  168.6574 O.2     1  UNL1       -0.4504
     18 C         142.9606  141.4873  161.6192 C.3     1  UNL1        0.1369
     19 C         141.9756  142.5028  161.1209 C.ar    1  UNL1        0.0344
     20 C         140.6853  142.0548  160.5008 C.ar    1  UNL1        0.0006
     21 C         139.7003  143.0702  160.0025 C.ar    1  UNL1       -0.0001
     22 C         140.0054  144.5338  160.1243 C.ar    1  UNL1        0.0031
     23 C         141.2956  144.9819  160.7444 C.ar    1  UNL1        0.0366
     24 C         142.2807  143.9664  161.2427 C.ar    1  UNL1        0.1363
     25 O         143.5709  144.4145  161.8628 O.3     1  UNL1       -0.4757
     26 C         143.6003  144.8578  163.2955 C.3     1  UNL1        0.2054
     27 C         143.5901  143.8387  164.3962 C.3     1  UNL1        0.0473
     28 C         142.2921  143.2427  164.8543 C.3     1  UNL1        0.0042
     29 C         141.0228  144.0343  164.7434 C.3     1  UNL1        0.0060
     30 C         139.9002  143.5348  163.8831 C.3     1  UNL1        0.0417
     31 C         138.5087  144.0563  164.0885 C.2     1  UNL1        0.0503
     32 O         137.4476  143.7861  163.0635 O.co2   1  UNL1       -0.5492
     33 O         138.1786  144.8479  165.3191 O.co2   1  UNL1       -0.5492
@<TRIPOS>UNITY_ATOM_ATTR
32 1
charge -1
@<TRIPOS>BOND
     1     1     2    1
     2     2     3   ar
     3     3     4   ar
     4     4     5   ar
     5     5     7    1
     6     7     8   ar
     7     8     9   ar
     8     9    10   ar
     9    10    13    1
    10    13    14   ar
    11    14    15   ar
    12    15    16   ar
    13    16    17   ar
    14    10    11   ar
    15    11    12   ar
    16     5     6   ar
    17     6    18    1
    18    18    19    1
    19    19    20   ar
    20    20    21   ar
    21    21    22   ar
    22    22    23   ar
    23    23    24   ar
    24    24    25    1
    25    25    26    1
    26    26    27    1
    27    27    28    1
    28    28    29    1
    29    29    30    1
    30    30    31    1
    31    31    32   ar
    32    31    33   ar
    33     6     2   ar
    34    24    19   ar
    35    12     7   ar
    36    17    13   ar
@<TRIPOS>MOLECULE
*****
 33 36 0 0 0
SMALL
GASTEIGER

@<TRIPOS>ATOM
      1 C         140.3308  144.1894  159.3578 C.3     1  UNL1        0.0517
      2 C         140.3137  144.2909  160.8543 C.ar    1  UNL1        0.0582
      3 C         140.0197  145.5275  161.6508 C.ar    1  UNL1        0.1132
      4 N         140.1119  145.1745  163.1058 N.ar    1  UNL1       -0.2256
      5 C         140.4629  143.7197  163.2085 C.ar    1  UNL1        0.1438
      6 N         140.5877  143.1737  161.8170 N.ar    1  UNL1       -0.3106
      7 C         140.6554  142.9468  164.4795 C.ar    1  UNL1        0.0342
      8 C         139.5650  142.0486  164.9836 C.ar    1  UNL1        0.0031
      9 C         139.7575  141.2757  166.2546 C.ar    1  UNL1        0.0031
     10 C         141.0405  141.4010  167.0216 C.ar    1  UNL1        0.0346
     11 C         142.1310  142.2992  166.5175 C.ar    1  UNL1        0.0031
     12 C         141.9384  143.0721  165.2465 C.ar    1  UNL1        0.0031
     13 C         141.2330  140.6280  168.2926 C.ar    1  UNL1        0.1454
     14 C         142.4101  139.7606  168.6274 C.ar    1  UNL1        0.0407
     15 C         142.1869  139.1833  169.9937 C.ar    1  UNL1        0.0438
     16 C         140.8717  139.6939  170.5034 C.ar    1  UNL1        0.1796
     17 O         140.2822  140.5868  169.4521 O.2     1  UNL1       -0.4504
     18 C         140.9268  141.7588  161.4522 C.3     1  UNL1        0.1369
     19 C         139.8647  140.7003  161.4861 C.ar    1  UNL1        0.0344
     20 C         138.4325  141.0664  161.2313 C.ar    1  UNL1        0.0006
     21 C         137.3703  140.0079  161.2652 C.ar    1  UNL1       -0.0001
     22 C         137.7401  138.5832  161.5539 C.ar    1  UNL1        0.0031
     23 C         139.1722  138.2170  161.8087 C.ar    1  UNL1        0.0366
     24 C         140.2345  139.2755  161.7748 C.ar    1  UNL1        0.1363
     25 O         141.6666  138.9093  162.0297 O.3     1  UNL1       -0.4757
     26 C         142.0004  137.8273  163.0134 C.3     1  UNL1        0.2054
     27 C         141.7266  138.0313  164.4741 C.3     1  UNL1        0.0473
     28 C         142.7678  138.6605  165.3516 C.3     1  UNL1        0.0042
     29 C         144.1130  139.0095  164.7871 C.3     1  UNL1        0.0060
     30 C         144.4427  140.4362  164.4618 C.3     1  UNL1        0.0417
     31 C         145.0358  140.7835  163.1285 C.2     1  UNL1        0.0503
     32 O         144.5300  140.1140  161.8852 O.co2   1  UNL1       -0.5492
     33 O         146.1348  141.8005  163.0386 O.co2   1  UNL1       -0.5492
@<TRIPOS>UNITY_ATOM_ATTR
32 1
charge -1
@<TRIPOS>BOND
     1     1     2    1
     2     2     3   ar
     3     3     4   ar
     4     4     5   ar
     5     5     7    1
     6     7     8   ar
     7     8     9   ar
     8     9    10   ar
     9    10    13    1
    10    13    14   ar
    11    14    15   ar
    12    15    16   ar
    13    16    17   ar
    14    10    11   ar
    15    11    12   ar
    16     5     6   ar
    17     6    18    1
    18    18    19    1
    19    19    20   ar
    20    20    21   ar
    21    21    22   ar
    22    22    23   ar
    23    23    24   ar
    24    24    25    1
    25    25    26    1
    26    26    27    1
    27    27    28    1
    28    28    29    1
    29    29    30    1
    30    30    31    1
    31    31    32   ar
    32    31    33   ar
    33     6     2   ar
    34    24    19   ar
    35    12     7   ar
    36    17    13   ar
