@<TRIPOS>MOLECULE
*****
 26 28 0 0 0
SMALL
GASTEIGER

@<TRIPOS>ATOM
      1 C         139.4220  138.0047  160.8934 C.3     1  UNL1        0.0902
      2 N         138.5821  138.5872  161.9912 N.3     1  UNL1       -0.2639
      3 C         138.7490  138.1023  163.4009 C.3     1  UNL1        0.0992
      4 C         139.4586  138.9568  164.4089 C.2     1  UNL1       -0.0088
      5 C         138.6757  139.6724  165.4695 C.2     1  UNL1       -0.0032
      6 C         139.3854  140.5270  166.4776 C.ar    1  UNL1       -0.0003
      7 C         139.8960  141.8818  166.0855 C.ar    1  UNL1       -0.0001
      8 C         140.6057  142.7364  167.0935 C.ar    1  UNL1        0.0039
      9 C         140.8047  142.2361  168.4935 C.ar    1  UNL1        0.0714
     10 C         140.2940  140.8813  168.8855 C.ar    1  UNL1        0.0039
     11 C         139.5844  140.0267  167.8776 C.ar    1  UNL1       -0.0001
     12 C         141.5144  143.0907  169.5016 C.3     1  UNL1        0.4186
     13 F         142.2241  143.9452  170.5096 F       1  UNL1       -0.1659
     14 F         142.7974  142.3711  169.2082 F       1  UNL1       -0.1659
     15 F         140.2314  143.8102  169.7949 F       1  UNL1       -0.1659
     16 C         137.5755  139.6546  161.6795 C.3     1  UNL1        0.0995
     17 C         137.9074  141.0954  161.9323 C.ar    1  UNL1       -0.0029
     18 C         137.3334  141.7989  163.1263 C.ar    1  UNL1        0.0004
     19 C         137.6652  143.2397  163.3791 C.ar    1  UNL1        0.0398
     20 C         138.5711  143.9771  162.4379 C.ar    1  UNL1        0.1724
     21 C         139.1451  143.2736  161.2440 C.ar    1  UNL1        0.1721
     22 C         138.8132  141.8327  160.9911 C.ar    1  UNL1        0.0371
     23 O         140.0510  144.0108  160.3028 O.3     1  UNL1       -0.4684
     24 C         140.3828  145.4516  160.5557 C.3     1  UNL1        0.2526
     25 C         139.8088  146.1551  161.7496 C.3     1  UNL1        0.2526
     26 O         138.9030  145.4179  162.6908 O.3     1  UNL1       -0.4684
@<TRIPOS>BOND
     1     1     2    1
     2     2     3    1
     3     3     4    1
     4     4     5    2
     5     5     6    1
     6     6     7   ar
     7     7     8   ar
     8     8     9   ar
     9     9    12    1
    10    12    13    1
    11    12    14    1
    12    12    15    1
    13     9    10   ar
    14    10    11   ar
    15     2    16    1
    16    16    17    1
    17    17    18   ar
    18    18    19   ar
    19    19    20   ar
    20    20    21   ar
    21    21    22   ar
    22    21    23    1
    23    23    24    1
    24    24    25    1
    25    25    26    1
    26    11     6   ar
    27    22    17   ar
    28    26    20    1
@<TRIPOS>MOLECULE
*****
 26 28 0 0 0
SMALL
GASTEIGER

@<TRIPOS>ATOM
      1 C         138.1223  138.2243  162.1389 C.3     1  UNL1        0.0902
      2 N         138.7541  138.3811  163.4903 N.3     1  UNL1       -0.2639
      3 C         138.1413  139.3032  164.5023 C.3     1  UNL1        0.0992
      4 C         139.0200  140.1489  165.3755 C.2     1  UNL1       -0.0088
      5 C         139.3353  139.7077  166.7740 C.2     1  UNL1       -0.0032
      6 C         140.2141  140.5535  167.6472 C.ar    1  UNL1       -0.0003
      7 C         139.7822  140.8909  169.0435 C.ar    1  UNL1       -0.0001
      8 C         140.6610  141.7366  169.9166 C.ar    1  UNL1        0.0039
      9 C         141.9716  142.2450  169.3935 C.ar    1  UNL1        0.0714
     10 C         142.4035  141.9076  167.9972 C.ar    1  UNL1        0.0039
     11 C         141.5248  141.0618  167.1240 C.ar    1  UNL1       -0.0001
     12 C         142.8504  143.0908  170.2666 C.3     1  UNL1        0.4186
     13 F         143.7293  143.9366  171.1397 F       1  UNL1       -0.1659
     14 F         143.9502  142.0786  170.1402 F       1  UNL1       -0.1659
     15 F         141.7507  144.1030  170.3931 F       1  UNL1       -0.1659
     16 C         139.9987  137.6157  163.8296 C.3     1  UNL1        0.0995
     17 C         141.3098  138.3336  163.9554 C.ar    1  UNL1       -0.0029
     18 C         142.2372  138.0082  165.0885 C.ar    1  UNL1        0.0004
     19 C         143.5483  138.7261  165.2144 C.ar    1  UNL1        0.0398
     20 C         143.9319  139.7694  164.2071 C.ar    1  UNL1        0.1724
     21 C         143.0044  140.0947  163.0740 C.ar    1  UNL1        0.1721
     22 C         141.6933  139.3768  162.9482 C.ar    1  UNL1        0.0371
     23 O         143.3879  141.1380  162.0668 O.3     1  UNL1       -0.4684
     24 C         144.6989  141.8558  162.1927 C.3     1  UNL1        0.2526
     25 C         145.6264  141.5304  163.3258 C.3     1  UNL1        0.2526
     26 O         145.2429  140.4872  164.3330 O.3     1  UNL1       -0.4684
@<TRIPOS>BOND
     1     1     2    1
     2     2     3    1
     3     3     4    1
     4     4     5    2
     5     5     6    1
     6     6     7   ar
     7     7     8   ar
     8     8     9   ar
     9     9    12    1
    10    12    13    1
    11    12    14    1
    12    12    15    1
    13     9    10   ar
    14    10    11   ar
    15     2    16    1
    16    16    17    1
    17    17    18   ar
    18    18    19   ar
    19    19    20   ar
    20    20    21   ar
    21    21    22   ar
    22    21    23    1
    23    23    24    1
    24    24    25    1
    25    25    26    1
    26    11     6   ar
    27    22    17   ar
    28    26    20    1
@<TRIPOS>MOLECULE
*****
 26 28 0 0 0
SMALL
GASTEIGER

@<TRIPOS>ATOM
      1 C         141.4131  141.1788  171.0713 C.3     1  UNL1        0.0902
      2 N         141.0800  140.3480  169.8677 N.3     1  UNL1       -0.2639
      3 C         139.6579  140.2360  169.4038 C.3     1  UNL1        0.0992
      4 C         139.3342  140.3486  167.9435 C.2     1  UNL1       -0.0088
      5 C         139.0871  139.1112  167.1325 C.2     1  UNL1       -0.0032
      6 C         138.7635  139.2239  165.6721 C.ar    1  UNL1       -0.0003
      7 C         138.2372  140.5146  165.1180 C.ar    1  UNL1       -0.0001
      8 C         137.9135  140.6273  163.6577 C.ar    1  UNL1        0.0039
      9 C         138.1161  139.4493  162.7516 C.ar    1  UNL1        0.0714
     10 C         138.6423  138.1586  163.3057 C.ar    1  UNL1        0.0039
     11 C         138.9660  138.0459  164.7660 C.ar    1  UNL1       -0.0001
     12 C         137.7924  139.5620  161.2912 C.3     1  UNL1        0.4186
     13 F         137.4687  139.6746  159.8309 F       1  UNL1       -0.1659
     14 F         138.1778  138.1257  161.0950 F       1  UNL1       -0.1659
     15 F         137.4070  140.9982  161.4874 F       1  UNL1       -0.1659
     16 C         142.1690  139.6292  169.1279 C.3     1  UNL1        0.0995
     17 C         142.6438  140.1473  167.8027 C.ar    1  UNL1       -0.0029
     18 C         142.8194  141.6222  167.5933 C.ar    1  UNL1        0.0004
     19 C         143.2942  142.1404  166.2682 C.ar    1  UNL1        0.0398
     20 C         143.5935  141.1837  165.1524 C.ar    1  UNL1        0.1724
     21 C         143.4180  139.7087  165.3617 C.ar    1  UNL1        0.1721
     22 C         142.9431  139.1906  166.6869 C.ar    1  UNL1        0.0371
     23 O         143.7173  138.7520  164.2459 O.3     1  UNL1       -0.4684
     24 C         144.1921  139.2702  162.9208 C.3     1  UNL1        0.2526
     25 C         144.3677  140.7451  162.7115 C.3     1  UNL1        0.2526
     26 O         144.0684  141.7018  163.8272 O.3     1  UNL1       -0.4684
@<TRIPOS>BOND
     1     1     2    1
     2     2     3    1
     3     3     4    1
     4     4     5    2
     5     5     6    1
     6     6     7   ar
     7     7     8   ar
     8     8     9   ar
     9     9    12    1
    10    12    13    1
    11    12    14    1
    12    12    15    1
    13     9    10   ar
    14    10    11   ar
    15     2    16    1
    16    16    17    1
    17    17    18   ar
    18    18    19   ar
    19    19    20   ar
    20    20    21   ar
    21    21    22   ar
    22    21    23    1
    23    23    24    1
    24    24    25    1
    25    25    26    1
    26    11     6   ar
    27    22    17   ar
    28    26    20    1
@<TRIPOS>MOLECULE
*****
 26 28 0 0 0
SMALL
GASTEIGER

@<TRIPOS>ATOM
      1 C         139.3412  137.8680  161.9685 C.3     1  UNL1        0.0902
      2 N         138.7178  138.5622  163.1430 N.3     1  UNL1       -0.2639
      3 C         138.8590  137.9818  164.5189 C.3     1  UNL1        0.0992
      4 C         139.3936  138.8258  165.6377 C.2     1  UNL1       -0.0088
      5 C         140.7629  139.4292  165.5338 C.2     1  UNL1       -0.0032
      6 C         141.2975  140.2733  166.6527 C.ar    1  UNL1       -0.0003
      7 C         142.2676  139.6885  167.6359 C.ar    1  UNL1       -0.0001
      8 C         142.8021  140.5325  168.7547 C.ar    1  UNL1        0.0039
      9 C         142.3665  141.9614  168.8904 C.ar    1  UNL1        0.0714
     10 C         141.3964  142.5462  167.9072 C.ar    1  UNL1        0.0039
     11 C         140.8618  141.7022  166.7883 C.ar    1  UNL1       -0.0001
     12 C         142.9010  142.8054  170.0093 C.3     1  UNL1        0.4186
     13 F         143.4356  143.6495  171.1281 F       1  UNL1       -0.1659
     14 F         144.1365  141.9563  170.0596 F       1  UNL1       -0.1659
     15 F         141.6656  143.6546  169.9590 F       1  UNL1       -0.1659
     16 C         137.9531  139.8368  162.9415 C.3     1  UNL1        0.0995
     17 C         138.6054  141.1564  163.2302 C.ar    1  UNL1       -0.0029
     18 C         137.9048  142.1673  164.0888 C.ar    1  UNL1        0.0004
     19 C         138.5569  143.4869  164.3775 C.ar    1  UNL1        0.0398
     20 C         139.9098  143.7955  163.8077 C.ar    1  UNL1        0.1724
     21 C         140.6104  142.7846  162.9491 C.ar    1  UNL1        0.1721
     22 C         139.9581  141.4650  162.6604 C.ar    1  UNL1        0.0371
     23 O         141.9631  143.0932  162.3793 O.3     1  UNL1       -0.4684
     24 C         142.6153  144.4127  162.6680 C.3     1  UNL1        0.2526
     25 C         141.9147  145.4237  163.5265 C.3     1  UNL1        0.2526
     26 O         140.5619  145.1151  164.0964 O.3     1  UNL1       -0.4684
@<TRIPOS>BOND
     1     1     2    1
     2     2     3    1
     3     3     4    1
     4     4     5    2
     5     5     6    1
     6     6     7   ar
     7     7     8   ar
     8     8     9   ar
     9     9    12    1
    10    12    13    1
    11    12    14    1
    12    12    15    1
    13     9    10   ar
    14    10    11   ar
    15     2    16    1
    16    16    17    1
    17    17    18   ar
    18    18    19   ar
    19    19    20   ar
    20    20    21   ar
    21    21    22   ar
    22    21    23    1
    23    23    24    1
    24    24    25    1
    25    25    26    1
    26    11     6   ar
    27    22    17   ar
    28    26    20    1
@<TRIPOS>MOLECULE
*****
 26 28 0 0 0
SMALL
GASTEIGER

@<TRIPOS>ATOM
      1 C         143.8558  138.2671  162.0212 C.3     1  UNL1        0.0902
      2 N         144.0560  139.7258  162.3074 N.3     1  UNL1       -0.2639
      3 C         144.6987  140.1567  163.5925 C.3     1  UNL1        0.0992
      4 C         143.8491  140.4630  164.7901 C.2     1  UNL1       -0.0088
      5 C         143.4897  141.8835  165.1111 C.2     1  UNL1       -0.0032
      6 C         142.6401  142.1898  166.3088 C.ar    1  UNL1       -0.0003
      7 C         141.1983  142.5631  166.1300 C.ar    1  UNL1       -0.0001
      8 C         140.3487  142.8694  167.3276 C.ar    1  UNL1        0.0039
      9 C         140.9409  142.8025  168.7041 C.ar    1  UNL1        0.0714
     10 C         142.3827  142.4292  168.8830 C.ar    1  UNL1        0.0039
     11 C         143.2322  142.1229  167.6853 C.ar    1  UNL1       -0.0001
     12 C         140.0913  143.1088  169.9018 C.3     1  UNL1        0.4186
     13 F         139.2418  143.4151  171.0994 F       1  UNL1       -0.1659
     14 F         140.6707  144.4911  169.9592 F       1  UNL1       -0.1659
     15 F         139.5119  141.7264  169.8444 F       1  UNL1       -0.1659
     16 C         143.6134  140.7537  161.3087 C.3     1  UNL1        0.0995
     17 C         142.5704  141.7642  161.6844 C.ar    1  UNL1       -0.0029
     18 C         142.9206  143.2220  161.7302 C.ar    1  UNL1        0.0004
     19 C         141.8777  144.2325  162.1058 C.ar    1  UNL1        0.0398
     20 C         140.4844  143.7852  162.4357 C.ar    1  UNL1        0.1724
     21 C         140.1342  142.3273  162.3899 C.ar    1  UNL1        0.1721
     22 C         141.1772  141.3168  162.0143 C.ar    1  UNL1        0.0371
     23 O         138.7410  141.8800  162.7198 O.3     1  UNL1       -0.4684
     24 C         137.6980  142.8904  163.0955 C.3     1  UNL1        0.2526
     25 C         138.0483  144.3483  163.1413 C.3     1  UNL1        0.2526
     26 O         139.4415  144.7956  162.8114 O.3     1  UNL1       -0.4684
@<TRIPOS>BOND
     1     1     2    1
     2     2     3    1
     3     3     4    1
     4     4     5    2
     5     5     6    1
     6     6     7   ar
     7     7     8   ar
     8     8     9   ar
     9     9    12    1
    10    12    13    1
    11    12    14    1
    12    12    15    1
    13     9    10   ar
    14    10    11   ar
    15     2    16    1
    16    16    17    1
    17    17    18   ar
    18    18    19   ar
    19    19    20   ar
    20    20    21   ar
    21    21    22   ar
    22    21    23    1
    23    23    24    1
    24    24    25    1
    25    25    26    1
    26    11     6   ar
    27    22    17   ar
    28    26    20    1
@<TRIPOS>MOLECULE
*****
 26 28 0 0 0
SMALL
GASTEIGER

@<TRIPOS>ATOM
      1 C         138.3869  142.7419  160.6320 C.3     1  UNL1        0.0902
      2 N         138.6193  143.6172  161.8277 N.3     1  UNL1       -0.2639
      3 C         137.7033  143.5277  163.0122 C.3     1  UNL1        0.0992
      4 C         138.2661  143.2630  164.3771 C.2     1  UNL1       -0.0088
      5 C         139.0529  142.0121  164.6344 C.2     1  UNL1       -0.0032
      6 C         139.6156  141.7474  165.9995 C.ar    1  UNL1       -0.0003
      7 C         140.3433  142.8340  166.7342 C.ar    1  UNL1       -0.0001
      8 C         140.9061  142.5694  168.0992 C.ar    1  UNL1        0.0039
      9 C         140.7412  141.2183  168.7294 C.ar    1  UNL1        0.0714
     10 C         140.0135  140.1317  167.9947 C.ar    1  UNL1        0.0039
     11 C         139.4507  140.3963  166.6297 C.ar    1  UNL1       -0.0001
     12 C         141.3039  140.9536  170.0945 C.3     1  UNL1        0.4186
     13 F         141.8667  140.6891  171.4595 F       1  UNL1       -0.1659
     14 F         141.5316  142.4239  170.2856 F       1  UNL1       -0.1659
     15 F         141.0763  139.4834  169.9034 F       1  UNL1       -0.1659
     16 C         139.7676  144.5822  161.8389 C.3     1  UNL1        0.0995
     17 C         141.0753  144.1847  162.4571 C.ar    1  UNL1       -0.0029
     18 C         141.7356  145.0849  163.4589 C.ar    1  UNL1        0.0004
     19 C         143.0432  144.6875  164.0772 C.ar    1  UNL1        0.0398
     20 C         143.6905  143.3898  163.6936 C.ar    1  UNL1        0.1724
     21 C         143.0302  142.4896  162.6918 C.ar    1  UNL1        0.1721
     22 C         141.7226  142.8871  162.0736 C.ar    1  UNL1        0.0371
     23 O         143.6775  141.1920  162.3083 O.3     1  UNL1       -0.4684
     24 C         144.9850  140.7946  162.9265 C.3     1  UNL1        0.2526
     25 C         145.6454  141.6948  163.9283 C.3     1  UNL1        0.2526
     26 O         144.9981  142.9924  164.3119 O.3     1  UNL1       -0.4684
@<TRIPOS>BOND
     1     1     2    1
     2     2     3    1
     3     3     4    1
     4     4     5    2
     5     5     6    1
     6     6     7   ar
     7     7     8   ar
     8     8     9   ar
     9     9    12    1
    10    12    13    1
    11    12    14    1
    12    12    15    1
    13     9    10   ar
    14    10    11   ar
    15     2    16    1
    16    16    17    1
    17    17    18   ar
    18    18    19   ar
    19    19    20   ar
    20    20    21   ar
    21    21    22   ar
    22    21    23    1
    23    23    24    1
    24    24    25    1
    25    25    26    1
    26    11     6   ar
    27    22    17   ar
    28    26    20    1
@<TRIPOS>MOLECULE
*****
 26 28 0 0 0
SMALL
GASTEIGER

@<TRIPOS>ATOM
      1 C         142.4215  137.6921  161.5885 C.3     1  UNL1        0.0902
      2 N         141.2500  137.8225  162.5162 N.3     1  UNL1       -0.2639
      3 C         141.3120  137.2260  163.8911 C.3     1  UNL1        0.0992
      4 C         141.4764  138.1153  165.0878 C.2     1  UNL1       -0.0088
      5 C         142.5260  139.1869  165.0874 C.2     1  UNL1       -0.0032
      6 C         142.6903  140.0762  166.2842 C.ar    1  UNL1       -0.0003
      7 C         142.5685  139.5046  167.6657 C.ar    1  UNL1       -0.0001
      8 C         142.7328  140.3938  168.8624 C.ar    1  UNL1        0.0039
      9 C         143.0189  141.8546  168.6777 C.ar    1  UNL1        0.0714
     10 C         143.1406  142.4262  167.2962 C.ar    1  UNL1        0.0039
     11 C         142.9763  141.5370  166.0994 C.ar    1  UNL1       -0.0001
     12 C         143.1832  142.7439  169.8744 C.3     1  UNL1        0.4186
     13 F         143.3474  143.6332  171.0711 F       1  UNL1       -0.1659
     14 F         141.7184  143.0646  169.8372 F       1  UNL1       -0.1659
     15 F         144.6480  142.4233  169.9117 F       1  UNL1       -0.1659
     16 C         140.0166  138.5495  162.0690 C.3     1  UNL1        0.0995
     17 C         139.5741  139.7891  162.7887 C.ar    1  UNL1       -0.0029
     18 C         138.4248  139.7280  163.7505 C.ar    1  UNL1        0.0004
     19 C         137.9823  140.9674  164.4702 C.ar    1  UNL1        0.0398
     20 C         138.6893  142.2681  164.2280 C.ar    1  UNL1        0.1724
     21 C         139.8387  142.3292  163.2661 C.ar    1  UNL1        0.1721
     22 C         140.2811  141.0896  162.5464 C.ar    1  UNL1        0.0371
     23 O         140.5456  143.6297  163.0238 O.3     1  UNL1       -0.4684
     24 C         140.1032  144.8692  163.7435 C.3     1  UNL1        0.2526
     25 C         138.9538  144.8081  164.7054 C.3     1  UNL1        0.2526
     26 O         138.2468  143.5075  164.9476 O.3     1  UNL1       -0.4684
@<TRIPOS>BOND
     1     1     2    1
     2     2     3    1
     3     3     4    1
     4     4     5    2
     5     5     6    1
     6     6     7   ar
     7     7     8   ar
     8     8     9   ar
     9     9    12    1
    10    12    13    1
    11    12    14    1
    12    12    15    1
    13     9    10   ar
    14    10    11   ar
    15     2    16    1
    16    16    17    1
    17    17    18   ar
    18    18    19   ar
    19    19    20   ar
    20    20    21   ar
    21    21    22   ar
    22    21    23    1
    23    23    24    1
    24    24    25    1
    25    25    26    1
    26    11     6   ar
    27    22    17   ar
    28    26    20    1
@<TRIPOS>MOLECULE
*****
 26 28 0 0 0
SMALL
GASTEIGER

@<TRIPOS>ATOM
      1 C         143.9535  138.0422  161.6653 C.3     1  UNL1        0.0902
      2 N         143.9204  139.4303  162.2326 N.3     1  UNL1       -0.2639
      3 C         144.5280  139.7063  163.5760 C.3     1  UNL1        0.0992
      4 C         143.6507  140.0838  164.7326 C.2     1  UNL1       -0.0088
      5 C         143.6224  141.5017  165.2210 C.2     1  UNL1       -0.0032
      6 C         142.7450  141.8792  166.3777 C.ar    1  UNL1       -0.0003
      7 C         141.2569  141.9425  166.2009 C.ar    1  UNL1       -0.0001
      8 C         140.3795  142.3200  167.3575 C.ar    1  UNL1        0.0039
      9 C         140.9904  142.6341  168.6909 C.ar    1  UNL1        0.0714
     10 C         142.4785  142.5707  168.8678 C.ar    1  UNL1        0.0039
     11 C         143.3559  142.1933  167.7112 C.ar    1  UNL1       -0.0001
     12 C         140.1130  143.0115  169.8476 C.3     1  UNL1        0.4186
     13 F         139.2357  143.3889  171.0042 F       1  UNL1       -0.1659
     14 F         139.4283  141.6796  169.7629 F       1  UNL1       -0.1659
     15 F         140.7977  144.3434  169.9324 F       1  UNL1       -0.1659
     16 C         143.2798  140.5426  161.4564 C.3     1  UNL1        0.0995
     17 C         141.9464  141.0826  161.8814 C.ar    1  UNL1       -0.0029
     18 C         140.8446  140.1411  162.2681 C.ar    1  UNL1        0.0004
     19 C         139.5113  140.6811  162.6931 C.ar    1  UNL1        0.0398
     20 C         139.2797  142.1626  162.7313 C.ar    1  UNL1        0.1724
     21 C         140.3815  143.1042  162.3446 C.ar    1  UNL1        0.1721
     22 C         141.7149  142.5641  161.9196 C.ar    1  UNL1        0.0371
     23 O         140.1500  144.5857  162.3829 O.3     1  UNL1       -0.4684
     24 C         138.8167  145.1256  162.8079 C.3     1  UNL1        0.2526
     25 C         137.7149  144.1841  163.1946 C.3     1  UNL1        0.2526
     26 O         137.9464  142.7026  163.1563 O.3     1  UNL1       -0.4684
@<TRIPOS>BOND
     1     1     2    1
     2     2     3    1
     3     3     4    1
     4     4     5    2
     5     5     6    1
     6     6     7   ar
     7     7     8   ar
     8     8     9   ar
     9     9    12    1
    10    12    13    1
    11    12    14    1
    12    12    15    1
    13     9    10   ar
    14    10    11   ar
    15     2    16    1
    16    16    17    1
    17    17    18   ar
    18    18    19   ar
    19    19    20   ar
    20    20    21   ar
    21    21    22   ar
    22    21    23    1
    23    23    24    1
    24    24    25    1
    25    25    26    1
    26    11     6   ar
    27    22    17   ar
    28    26    20    1
@<TRIPOS>MOLECULE
*****
 26 28 0 0 0
SMALL
GASTEIGER

@<TRIPOS>ATOM
      1 C         139.5071  137.8220  162.0391 C.3     1  UNL1        0.0902
      2 N         140.8946  137.7490  162.6042 N.3     1  UNL1       -0.2639
      3 C         141.1172  137.1829  163.9753 C.3     1  UNL1        0.0992
      4 C         141.6360  138.0618  165.0745 C.2     1  UNL1       -0.0088
      5 C         140.8439  139.2565  165.5165 C.2     1  UNL1       -0.0032
      6 C         141.3627  140.1355  166.6158 C.ar    1  UNL1       -0.0003
      7 C         142.3001  139.5757  167.6443 C.ar    1  UNL1       -0.0001
      8 C         142.8189  140.4546  168.7435 C.ar    1  UNL1        0.0039
      9 C         142.4003  141.8932  168.8142 C.ar    1  UNL1        0.0714
     10 C         141.4629  142.4530  167.7857 C.ar    1  UNL1        0.0039
     11 C         140.9441  141.5741  166.6864 C.ar    1  UNL1       -0.0001
     12 C         142.9191  142.7722  169.9135 C.3     1  UNL1        0.4186
     13 F         143.4379  143.6512  171.0127 F       1  UNL1       -0.1659
     14 F         141.6816  143.6150  169.8236 F       1  UNL1       -0.1659
     15 F         144.1567  141.9294  170.0034 F       1  UNL1       -0.1659
     16 C         142.0595  138.2422  161.7982 C.3     1  UNL1        0.0995
     17 C         142.6871  139.5662  162.1194 C.ar    1  UNL1       -0.0029
     18 C         144.1566  139.6492  162.4089 C.ar    1  UNL1        0.0004
     19 C         144.7841  140.9732  162.7301 C.ar    1  UNL1        0.0398
     20 C         143.9422  142.2143  162.7620 C.ar    1  UNL1        0.1724
     21 C         142.4727  142.1313  162.4726 C.ar    1  UNL1        0.1721
     22 C         141.8452  140.8072  162.1513 C.ar    1  UNL1        0.0371
     23 O         141.6308  143.3723  162.5044 O.3     1  UNL1       -0.4684
     24 C         142.2583  144.6962  162.8257 C.3     1  UNL1        0.2526
     25 C         143.7278  144.7792  163.1151 C.3     1  UNL1        0.2526
     26 O         144.5697  143.5382  163.0833 O.3     1  UNL1       -0.4684
@<TRIPOS>BOND
     1     1     2    1
     2     2     3    1
     3     3     4    1
     4     4     5    2
     5     5     6    1
     6     6     7   ar
     7     7     8   ar
     8     8     9   ar
     9     9    12    1
    10    12    13    1
    11    12    14    1
    12    12    15    1
    13     9    10   ar
    14    10    11   ar
    15     2    16    1
    16    16    17    1
    17    17    18   ar
    18    18    19   ar
    19    19    20   ar
    20    20    21   ar
    21    21    22   ar
    22    21    23    1
    23    23    24    1
    24    24    25    1
    25    25    26    1
    26    11     6   ar
    27    22    17   ar
    28    26    20    1
