@<TRIPOS>MOLECULE
*****
 24 26 0 0 0
SMALL
GASTEIGER

@<TRIPOS>ATOM
      1 C         139.0676  144.3939  163.3656 C.ar    1  UNL1        0.1384
      2 C         140.3709  144.4409  164.1066 C.ar    1  UNL1        0.0369
      3 C         140.7730  143.2973  164.9901 C.ar    1  UNL1        0.0025
      4 C         139.8718  142.1068  165.1326 C.ar    1  UNL1       -0.0077
      5 C         138.5685  142.0598  164.3916 C.ar    1  UNL1       -0.0154
      6 C         138.1664  143.2034  163.5081 C.ar    1  UNL1        0.0329
      7 C         137.8916  140.7636  164.7260 C.3     1  UNL1        0.0481
      8 C         138.7766  140.0095  165.6736 C.2     1  UNL1       -0.0421
      9 C         140.0005  140.8396  165.9249 C.2     1  UNL1       -0.0246
     10 C         139.7060  146.2832  161.7003 C.3     1  UNL1        0.2525
     11 O         138.6655  145.5375  162.4821 O.3     1  UNL1       -0.4714
     12 C         141.1510  140.4679  166.8127 C.3     1  UNL1        0.0634
     13 C         142.4018  139.8920  166.2178 C.3     1  UNL1        0.0111
     14 C         141.0508  140.6721  168.2953 C.ar    1  UNL1        0.0818
     15 C         139.7263  140.9969  168.9199 C.ar    1  UNL1        0.1139
     16 N         139.6262  141.2011  170.4026 N.ar    1  UNL1       -0.2394
     17 C         140.8507  141.0804  171.2607 C.ar    1  UNL1        0.1195
     18 C         142.1752  140.7556  170.6361 C.ar    1  UNL1        0.1191
     19 N         142.2752  140.5514  169.1534 N.ar    1  UNL1       -0.2446
     20 C         138.4885  138.6618  166.2660 C.3     1  UNL1        0.0394
     21 C         138.6962  137.4226  165.4468 C.3     1  UNL1        0.0765
     22 N         139.4932  137.4872  164.1778 N.3     1  UNL1       -0.2700
     23 C         140.9785  137.2805  164.2136 C.3     1  UNL1        0.0897
     24 C         138.8050  137.7586  162.8729 C.3     1  UNL1        0.0897
@<TRIPOS>BOND
     1    10    11    1
     2    11     1    1
     3     1     2   ar
     4     2     3   ar
     5     3     4   ar
     6     4     5   ar
     7     5     6   ar
     8     5     7    1
     9     7     8    1
    10     8    20    1
    11    20    21    1
    12    21    22    1
    13    22    23    1
    14    22    24    1
    15     8     9    2
    16     9    12    1
    17    12    13    1
    18    12    14    1
    19    14    15   ar
    20    15    16   ar
    21    16    17   ar
    22    17    18   ar
    23    18    19   ar
    24     6     1   ar
    25    19    14   ar
    26     9     4    1
@<TRIPOS>MOLECULE
*****
 24 26 0 0 0
SMALL
GASTEIGER

@<TRIPOS>ATOM
      1 C         142.2960  142.1783  168.8480 C.ar    1  UNL1        0.1384
      2 C         140.8123  142.3521  168.7135 C.ar    1  UNL1        0.0369
      3 C         140.0327  141.4587  167.7947 C.ar    1  UNL1        0.0025
      4 C         140.7369  140.3916  167.0104 C.ar    1  UNL1       -0.0077
      5 C         142.2207  140.2178  167.1449 C.ar    1  UNL1       -0.0154
      6 C         143.0003  141.1112  168.0637 C.ar    1  UNL1        0.0329
      7 C         142.6380  139.0875  166.2513 C.3     1  UNL1        0.0481
      8 C         141.4120  138.5628  165.5646 C.2     1  UNL1       -0.0421
      9 C         140.2371  139.3688  166.0337 C.2     1  UNL1       -0.0246
     10 C         144.4960  142.7359  170.1127 C.3     1  UNL1        0.2525
     11 O         143.0756  143.0717  169.7668 O.3     1  UNL1       -0.4714
     12 C         138.8125  139.1843  165.6020 C.3     1  UNL1        0.0634
     13 C         137.8193  138.5633  166.5389 C.3     1  UNL1        0.0111
     14 C         138.3811  139.6208  164.2333 C.ar    1  UNL1        0.0818
     15 C         137.9542  141.0394  163.9983 C.ar    1  UNL1        0.1139
     16 N         137.5228  141.4758  162.6295 N.ar    1  UNL1       -0.2394
     17 C         137.5181  140.4936  161.4958 C.ar    1  UNL1        0.1195
     18 C         137.9449  139.0749  161.7309 C.ar    1  UNL1        0.1191
     19 N         138.3764  138.6386  163.0996 N.ar    1  UNL1       -0.2446
     20 C         141.3685  137.4308  164.5812 C.3     1  UNL1        0.0394
     21 C         141.7427  137.6676  163.1481 C.3     1  UNL1        0.0765
     22 N         142.4112  138.9498  162.7494 N.3     1  UNL1       -0.2700
     23 C         141.5830  140.1330  162.3444 C.3     1  UNL1        0.0897
     24 C         143.9079  139.0488  162.7559 C.3     1  UNL1        0.0897
@<TRIPOS>BOND
     1    10    11    1
     2    11     1    1
     3     1     2   ar
     4     2     3   ar
     5     3     4   ar
     6     4     5   ar
     7     5     6   ar
     8     5     7    1
     9     7     8    1
    10     8    20    1
    11    20    21    1
    12    21    22    1
    13    22    23    1
    14    22    24    1
    15     8     9    2
    16     9    12    1
    17    12    13    1
    18    12    14    1
    19    14    15   ar
    20    15    16   ar
    21    16    17   ar
    22    17    18   ar
    23    18    19   ar
    24     6     1   ar
    25    19    14   ar
    26     9     4    1
@<TRIPOS>MOLECULE
*****
 24 26 0 0 0
SMALL
GASTEIGER

@<TRIPOS>ATOM
      1 C         140.9670  140.2772  168.4917 C.ar    1  UNL1        0.1384
      2 C         141.3193  141.7314  168.3877 C.ar    1  UNL1        0.0369
      3 C         140.7225  142.5717  167.2978 C.ar    1  UNL1        0.0025
      4 C         139.7733  141.9576  166.3120 C.ar    1  UNL1       -0.0077
      5 C         139.4209  140.5033  166.4160 C.ar    1  UNL1       -0.0154
      6 C         140.0178  139.6631  167.5059 C.ar    1  UNL1        0.0329
      7 C         138.4631  140.1780  165.3083 C.3     1  UNL1        0.0481
      8 C         138.2235  141.4313  164.5198 C.2     1  UNL1       -0.0421
      9 C         139.0333  142.5311  165.1401 C.2     1  UNL1       -0.0246
     10 C         142.7115  139.9635  170.3912 C.3     1  UNL1        0.2525
     11 O         141.5638  139.4369  169.5816 O.3     1  UNL1       -0.4714
     12 C         139.0926  143.9546  164.6708 C.3     1  UNL1        0.0634
     13 C         138.5268  145.0501  165.5251 C.3     1  UNL1        0.0111
     14 C         139.7176  144.2826  163.3473 C.ar    1  UNL1        0.0818
     15 C         139.1004  145.3265  162.4645 C.ar    1  UNL1        0.1139
     16 N         139.7255  145.6545  161.1409 N.ar    1  UNL1       -0.2394
     17 C         140.9679  144.9386  160.7003 C.ar    1  UNL1        0.1195
     18 C         141.5851  143.8948  161.5831 C.ar    1  UNL1        0.1191
     19 N         140.9600  143.5668  162.9066 N.ar    1  UNL1       -0.2446
     20 C         137.3309  141.5619  163.3213 C.3     1  UNL1        0.0394
     21 C         137.8869  141.3460  161.9450 C.3     1  UNL1        0.0765
     22 N         138.5776  140.0577  161.6087 N.3     1  UNL1       -0.2700
     23 C         139.9965  140.0722  161.1224 C.3     1  UNL1        0.0897
     24 C         137.8494  138.7550  161.7586 C.3     1  UNL1        0.0897
@<TRIPOS>BOND
     1    10    11    1
     2    11     1    1
     3     1     2   ar
     4     2     3   ar
     5     3     4   ar
     6     4     5   ar
     7     5     6   ar
     8     5     7    1
     9     7     8    1
    10     8    20    1
    11    20    21    1
    12    21    22    1
    13    22    23    1
    14    22    24    1
    15     8     9    2
    16     9    12    1
    17    12    13    1
    18    12    14    1
    19    14    15   ar
    20    15    16   ar
    21    16    17   ar
    22    17    18   ar
    23    18    19   ar
    24     6     1   ar
    25    19    14   ar
    26     9     4    1
@<TRIPOS>MOLECULE
*****
 24 26 0 0 0
SMALL
GASTEIGER

@<TRIPOS>ATOM
      1 C         140.6978  144.5258  163.5720 C.ar    1  UNL1        0.1384
      2 C         139.7210  144.4517  164.7079 C.ar    1  UNL1        0.0369
      3 C         139.5845  143.1841  165.4982 C.ar    1  UNL1        0.0025
      4 C         140.4249  141.9907  165.1527 C.ar    1  UNL1       -0.0077
      5 C         141.4017  142.0648  164.0168 C.ar    1  UNL1       -0.0154
      6 C         141.5382  143.3324  163.2265 C.ar    1  UNL1        0.0329
      7 C         142.0901  140.7364  163.9100 C.3     1  UNL1        0.0481
      8 C         141.5387  139.8412  164.9799 C.2     1  UNL1       -0.0421
      9 C         140.5095  140.6165  165.7479 C.2     1  UNL1       -0.0246
     10 C         139.7694  146.1835  161.7999 C.3     1  UNL1        0.2525
     11 O         140.8343  145.7934  162.7817 O.3     1  UNL1       -0.4714
     12 C         139.7061  140.1069  166.9075 C.3     1  UNL1        0.0634
     13 C         138.4786  139.2799  166.6638 C.3     1  UNL1        0.0111
     14 C         140.1299  140.4244  168.3109 C.ar    1  UNL1        0.0818
     15 C         139.1799  140.2012  169.4500 C.ar    1  UNL1        0.1139
     16 N         139.6039  140.5187  170.8535 N.ar    1  UNL1       -0.2394
     17 C         140.9779  141.0594  171.1177 C.ar    1  UNL1        0.1195
     18 C         141.9279  141.2826  169.9786 C.ar    1  UNL1        0.1191
     19 N         141.5040  140.9651  168.5752 N.ar    1  UNL1       -0.2446
     20 C         141.9451  138.4203  165.2367 C.3     1  UNL1        0.0394
     21 C         141.2266  137.2985  164.5474 C.3     1  UNL1        0.0765
     22 N         140.5212  137.5465  163.2470 N.3     1  UNL1       -0.2700
     23 C         139.0265  137.6696  163.2162 C.3     1  UNL1        0.0897
     24 C         141.3104  137.6713  161.9776 C.3     1  UNL1        0.0897
@<TRIPOS>BOND
     1    10    11    1
     2    11     1    1
     3     1     2   ar
     4     2     3   ar
     5     3     4   ar
     6     4     5   ar
     7     5     6   ar
     8     5     7    1
     9     7     8    1
    10     8    20    1
    11    20    21    1
    12    21    22    1
    13    22    23    1
    14    22    24    1
    15     8     9    2
    16     9    12    1
    17    12    13    1
    18    12    14    1
    19    14    15   ar
    20    15    16   ar
    21    16    17   ar
    22    17    18   ar
    23    18    19   ar
    24     6     1   ar
    25    19    14   ar
    26     9     4    1
@<TRIPOS>MOLECULE
*****
 24 26 0 0 0
SMALL
GASTEIGER

@<TRIPOS>ATOM
      1 C         141.3634  140.0623  169.2738 C.ar    1  UNL1        0.1384
      2 C         139.9832  140.1446  168.6923 C.ar    1  UNL1        0.0369
      3 C         139.7633  139.8501  167.2380 C.ar    1  UNL1        0.0025
      4 C         140.9236  139.4733  166.3653 C.ar    1  UNL1       -0.0077
      5 C         142.3038  139.3910  166.9468 C.ar    1  UNL1       -0.0154
      6 C         142.5237  139.6855  168.4011 C.ar    1  UNL1        0.0329
      7 C         143.2467  138.9969  165.8487 C.3     1  UNL1        0.0481
      8 C         142.4492  138.8357  164.5886 C.2     1  UNL1       -0.0421
      9 C         141.0134  139.1301  164.9078 C.2     1  UNL1       -0.0246
     10 C         141.7607  141.7734  171.1880 C.3     1  UNL1        0.2525
     11 O         141.5834  140.3567  170.7281 O.3     1  UNL1       -0.4714
     12 C         139.8685  139.0886  163.9397 C.3     1  UNL1        0.0634
     13 C         139.3779  137.7721  163.4142 C.3     1  UNL1        0.0111
     14 C         139.2141  140.3636  163.4969 C.ar    1  UNL1        0.0818
     15 C         137.7442  140.3881  163.1989 C.ar    1  UNL1        0.1139
     16 N         137.0898  141.6632  162.7561 N.ar    1  UNL1       -0.2394
     17 C         137.9053  142.9138  162.6113 C.ar    1  UNL1        0.1195
     18 C         139.3752  142.8893  162.9093 C.ar    1  UNL1        0.1191
     19 N         140.0295  141.6142  163.3520 N.ar    1  UNL1       -0.2446
     20 C         142.9921  138.4481  163.2450 C.3     1  UNL1        0.0394
     21 C         144.2536  139.0796  162.7353 C.3     1  UNL1        0.0765
     22 N         144.4068  140.5716  162.7559 N.3     1  UNL1       -0.2700
     23 C         143.4741  141.4325  161.9566 C.3     1  UNL1        0.0897
     24 C         145.4928  141.2026  163.5759 C.3     1  UNL1        0.0897
@<TRIPOS>BOND
     1    10    11    1
     2    11     1    1
     3     1     2   ar
     4     2     3   ar
     5     3     4   ar
     6     4     5   ar
     7     5     6   ar
     8     5     7    1
     9     7     8    1
    10     8    20    1
    11    20    21    1
    12    21    22    1
    13    22    23    1
    14    22    24    1
    15     8     9    2
    16     9    12    1
    17    12    13    1
    18    12    14    1
    19    14    15   ar
    20    15    16   ar
    21    16    17   ar
    22    17    18   ar
    23    18    19   ar
    24     6     1   ar
    25    19    14   ar
    26     9     4    1
@<TRIPOS>MOLECULE
*****
 24 26 0 0 0
SMALL
GASTEIGER

@<TRIPOS>ATOM
      1 C         138.6189  144.0322  162.8526 C.ar    1  UNL1        0.1384
      2 C         138.4756  143.9801  164.3448 C.ar    1  UNL1        0.0369
      3 C         138.6124  142.6721  165.0661 C.ar    1  UNL1        0.0025
      4 C         138.8925  141.4162  164.2953 C.ar    1  UNL1       -0.0077
      5 C         139.0358  141.4683  162.8031 C.ar    1  UNL1       -0.0154
      6 C         138.8990  142.7763  162.0817 C.ar    1  UNL1        0.0329
      7 C         139.3090  140.0765  162.3147 C.3     1  UNL1        0.0481
      8 C         139.3346  139.1643  163.5052 C.2     1  UNL1       -0.0421
      9 C         139.0772  139.9922  164.7292 C.2     1  UNL1       -0.0246
     10 C         139.7037  146.1441  161.7976 C.3     1  UNL1        0.2525
     11 O         138.4821  145.3402  162.1312 O.3     1  UNL1       -0.4714
     12 C         139.0153  139.4853  166.1396 C.3     1  UNL1        0.0634
     13 C         137.8044  138.7389  166.6158 C.3     1  UNL1        0.0111
     14 C         140.1642  139.7246  167.0737 C.ar    1  UNL1        0.0818
     15 C         139.9131  140.2779  168.4451 C.ar    1  UNL1        0.1139
     16 N         141.0621  140.5172  169.3793 N.ar    1  UNL1       -0.2394
     17 C         142.4622  140.2032  168.9420 C.ar    1  UNL1        0.1195
     18 C         142.7133  139.6500  167.5706 C.ar    1  UNL1        0.1191
     19 N         141.5643  139.4106  166.6365 N.ar    1  UNL1       -0.2446
     20 C         139.5753  137.6839  163.4766 C.3     1  UNL1        0.0394
     21 C         140.9778  137.1523  163.4642 C.3     1  UNL1        0.0765
     22 N         142.0546  137.8939  162.7290 N.3     1  UNL1       -0.2700
     23 C         142.1243  137.8257  161.2322 C.3     1  UNL1        0.0897
     24 C         143.0615  138.7038  163.4906 C.3     1  UNL1        0.0897
@<TRIPOS>BOND
     1    10    11    1
     2    11     1    1
     3     1     2   ar
     4     2     3   ar
     5     3     4   ar
     6     4     5   ar
     7     5     6   ar
     8     5     7    1
     9     7     8    1
    10     8    20    1
    11    20    21    1
    12    21    22    1
    13    22    23    1
    14    22    24    1
    15     8     9    2
    16     9    12    1
    17    12    13    1
    18    12    14    1
    19    14    15   ar
    20    15    16   ar
    21    16    17   ar
    22    17    18   ar
    23    18    19   ar
    24     6     1   ar
    25    19    14   ar
    26     9     4    1
@<TRIPOS>MOLECULE
*****
 24 26 0 0 0
SMALL
GASTEIGER

@<TRIPOS>ATOM
      1 C         141.1508  140.6731  168.0322 C.ar    1  UNL1        0.1384
      2 C         142.5459  140.7312  167.4842 C.ar    1  UNL1        0.0369
      3 C         142.8682  141.6583  166.3499 C.ar    1  UNL1        0.0025
      4 C         141.7953  142.5273  165.7637 C.ar    1  UNL1       -0.0077
      5 C         140.4003  142.4693  166.3117 C.ar    1  UNL1       -0.0154
      6 C         140.0780  141.5421  167.4459 C.ar    1  UNL1        0.0329
      7 C         139.5569  143.4376  165.5363 C.3     1  UNL1        0.0481
      8 C         140.4309  144.0941  164.5090 C.2     1  UNL1       -0.0421
      9 C         141.8143  143.5315  164.6496 C.2     1  UNL1       -0.0246
     10 C         140.5809  140.2979  170.5391 C.3     1  UNL1        0.2525
     11 O         140.8286  139.7460  169.1665 O.3     1  UNL1       -0.4714
     12 C         143.0072  143.9072  163.8215 C.3     1  UNL1        0.0634
     13 C         143.8783  145.0549  164.2385 C.3     1  UNL1        0.0111
     14 C         143.3290  143.1352  162.5763 C.ar    1  UNL1        0.0818
     15 C         143.8113  141.7184  162.6758 C.ar    1  UNL1        0.1139
     16 N         144.1332  140.9464  161.4306 N.ar    1  UNL1       -0.2394
     17 C         143.9727  141.5914  160.0858 C.ar    1  UNL1        0.1195
     18 C         143.4904  143.0082  159.9863 C.ar    1  UNL1        0.1191
     19 N         143.1686  143.7801  161.2315 N.ar    1  UNL1       -0.2446
     20 C         139.9975  145.1312  163.5156 C.3     1  UNL1        0.0394
     21 C         138.8026  144.8817  162.6439 C.3     1  UNL1        0.0765
     22 N         138.7566  143.6678  161.7640 N.3     1  UNL1       -0.2700
     23 C         137.8422  142.5286  162.1048 C.3     1  UNL1        0.0897
     24 C         139.6249  143.5931  160.5432 C.3     1  UNL1        0.0897
@<TRIPOS>BOND
     1    10    11    1
     2    11     1    1
     3     1     2   ar
     4     2     3   ar
     5     3     4   ar
     6     4     5   ar
     7     5     6   ar
     8     5     7    1
     9     7     8    1
    10     8    20    1
    11    20    21    1
    12    21    22    1
    13    22    23    1
    14    22    24    1
    15     8     9    2
    16     9    12    1
    17    12    13    1
    18    12    14    1
    19    14    15   ar
    20    15    16   ar
    21    16    17   ar
    22    17    18   ar
    23    18    19   ar
    24     6     1   ar
    25    19    14   ar
    26     9     4    1
@<TRIPOS>MOLECULE
*****
 24 26 0 0 0
SMALL
GASTEIGER

@<TRIPOS>ATOM
      1 C         138.7285  144.5722  162.9226 C.ar    1  UNL1        0.1384
      2 C         138.4653  143.2569  162.2513 C.ar    1  UNL1        0.0369
      3 C         138.7329  141.9748  162.9825 C.ar    1  UNL1        0.0025
      4 C         139.2638  142.0080  164.3850 C.ar    1  UNL1       -0.0077
      5 C         139.5270  143.3233  165.0563 C.ar    1  UNL1       -0.0154
      6 C         139.2594  144.6054  164.3251 C.ar    1  UNL1        0.0329
      7 C         140.0468  143.0440  166.4355 C.3     1  UNL1        0.0481
      8 C         140.1048  141.5562  166.6164 C.2     1  UNL1       -0.0421
      9 C         139.6209  140.9159  165.3492 C.2     1  UNL1       -0.0246
     10 C         139.5739  146.5499  161.4652 C.3     1  UNL1        0.2525
     11 O         138.4609  145.8543  162.1914 O.3     1  UNL1       -0.4714
     12 C         139.5129  139.4421  165.0914 C.3     1  UNL1        0.0634
     13 C         138.5722  138.6051  165.9065 C.3     1  UNL1        0.0111
     14 C         140.3457  138.8054  164.0185 C.ar    1  UNL1        0.0818
     15 C         139.6824  138.1617  162.8371 C.ar    1  UNL1        0.1139
     16 N         140.5153  137.5250  161.7642 N.ar    1  UNL1       -0.2394
     17 C         142.0114  137.5320  161.8727 C.ar    1  UNL1        0.1195
     18 C         142.6746  138.1758  163.0541 C.ar    1  UNL1        0.1191
     19 N         141.8418  138.8124  164.1270 N.ar    1  UNL1       -0.2446
     20 C         140.5658  140.8351  167.8483 C.3     1  UNL1        0.0394
     21 C         139.7658  140.9256  169.1139 C.3     1  UNL1        0.0765
     22 N         140.2804  141.7301  170.2706 N.3     1  UNL1       -0.2700
     23 C         140.0100  143.2040  170.3384 C.3     1  UNL1        0.0897
     24 C         141.0653  141.0607  171.3595 C.3     1  UNL1        0.0897
@<TRIPOS>BOND
     1    10    11    1
     2    11     1    1
     3     1     2   ar
     4     2     3   ar
     5     3     4   ar
     6     4     5   ar
     7     5     6   ar
     8     5     7    1
     9     7     8    1
    10     8    20    1
    11    20    21    1
    12    21    22    1
    13    22    23    1
    14    22    24    1
    15     8     9    2
    16     9    12    1
    17    12    13    1
    18    12    14    1
    19    14    15   ar
    20    15    16   ar
    21    16    17   ar
    22    17    18   ar
    23    18    19   ar
    24     6     1   ar
    25    19    14   ar
    26     9     4    1
@<TRIPOS>MOLECULE
*****
 24 26 0 0 0
SMALL
GASTEIGER

@<TRIPOS>ATOM
      1 C         142.4900  141.0099  169.1820 C.ar    1  UNL1        0.1384
      2 C         143.0750  142.2326  168.5397 C.ar    1  UNL1        0.0369
      3 C         143.3441  142.2487  167.0641 C.ar    1  UNL1        0.0025
      4 C         143.0281  141.0421  166.2309 C.ar    1  UNL1       -0.0077
      5 C         142.4431  139.8194  166.8732 C.ar    1  UNL1       -0.0154
      6 C         142.1740  139.8033  168.3488 C.ar    1  UNL1        0.0329
      7 C         142.2365  138.7878  165.8040 C.3     1  UNL1        0.0481
      8 C         142.6939  139.3730  164.5008 C.2     1  UNL1       -0.0421
      9 C         143.1832  140.7662  164.7646 C.2     1  UNL1       -0.0246
     10 C         140.8084  140.9822  171.1623 C.3     1  UNL1        0.2525
     11 O         142.2209  140.9938  170.6576 O.3     1  UNL1       -0.4714
     12 C         143.7312  141.7167  163.7418 C.3     1  UNL1        0.0634
     13 C         145.1980  141.7166  163.4277 C.3     1  UNL1        0.0111
     14 C         142.8126  142.6674  163.0330 C.ar    1  UNL1        0.0818
     15 C         143.3150  143.4679  161.8682 C.ar    1  UNL1        0.1139
     16 N         142.3963  144.4186  161.1595 N.ar    1  UNL1       -0.2394
     17 C         140.9752  144.5687  161.6155 C.ar    1  UNL1        0.1195
     18 C         140.4728  143.7682  162.7803 C.ar    1  UNL1        0.1191
     19 N         141.3915  142.8176  163.4891 N.ar    1  UNL1       -0.2446
     20 C         142.6668  138.6857  163.1678 C.3     1  UNL1        0.0394
     21 C         141.6859  137.5796  162.9141 C.3     1  UNL1        0.0765
     22 N         140.2425  137.9003  162.6617 N.3     1  UNL1       -0.2700
     23 C         139.7812  138.2414  161.2757 C.3     1  UNL1        0.0897
     24 C         139.2605  137.8801  163.7953 C.3     1  UNL1        0.0897
@<TRIPOS>BOND
     1    10    11    1
     2    11     1    1
     3     1     2   ar
     4     2     3   ar
     5     3     4   ar
     6     4     5   ar
     7     5     6   ar
     8     5     7    1
     9     7     8    1
    10     8    20    1
    11    20    21    1
    12    21    22    1
    13    22    23    1
    14    22    24    1
    15     8     9    2
    16     9    12    1
    17    12    13    1
    18    12    14    1
    19    14    15   ar
    20    15    16   ar
    21    16    17   ar
    22    17    18   ar
    23    18    19   ar
    24     6     1   ar
    25    19    14   ar
    26     9     4    1
