@<TRIPOS>MOLECULE
*****
 33 36 0 0 0
SMALL
GASTEIGER

@<TRIPOS>ATOM
      1 C         141.3280  140.8334  169.5807 C.ar    1  UNL1        0.0783
      2 C         142.1097  139.6081  169.9513 C.ar    1  UNL1        0.1053
      3 N         142.8802  138.8640  168.9013 N.ar    1  UNL1       -0.2292
      4 C         142.8690  139.3452  167.4806 C.ar    1  UNL1        0.1289
      5 C         142.0872  140.5705  167.1100 C.ar    1  UNL1        0.0380
      6 C         141.8899  141.2775  165.8019 C.ar    1  UNL1        0.0097
      7 C         140.9974  142.4587  166.0435 C.ar    1  UNL1        0.0296
      8 S         140.6431  142.4816  167.5009 S.2     1  UNL1       -0.0866
      9 C         141.3167  141.3146  168.1600 C.ar    1  UNL1        0.0380
     10 C         140.5395  143.4440  165.0093 C.ar    1  UNL1        0.0060
     11 C         141.5469  144.2412  164.2350 C.ar    1  UNL1        0.0005
     12 C         141.0889  145.2265  163.2008 C.ar    1  UNL1        0.0000
     13 C         139.6236  145.4145  162.9409 C.ar    1  UNL1        0.0000
     14 C         138.6162  144.6173  163.7152 C.ar    1  UNL1        0.0000
     15 C         139.0742  143.6320  164.7494 C.ar    1  UNL1        0.0005
     16 N         139.0591  141.6177  170.5742 N.am    1  UNL1       -0.3253
     17 C         140.5575  141.5775  170.6307 C.2     1  UNL1        0.2448
     18 O         141.2854  142.2816  171.7374 O.2     1  UNL1       -0.2703
     19 H         138.5534  142.1061  171.2634 H       1  UNL1        0.1453
     20 H         138.5813  141.1556  169.8479 H       1  UNL1        0.1453
     21 N         143.6395  138.6010  166.4306 N.pl3   1  UNL1       -0.3184
     22 H         144.5439  138.2661  166.6284 H       1  UNL1        0.1482
     23 C         143.0321  138.3670  165.0792 C.3     1  UNL1        0.0848
     24 C         141.7742  137.5598  164.9520 C.3     1  UNL1        0.0223
     25 C         141.1666  137.3258  163.6006 C.3     1  UNL1        0.0188
     26 C         141.8170  137.8989  162.3765 C.3     1  UNL1        0.0686
     27 N         143.0750  138.7061  162.5037 N.3     1  UNL1       -0.2971
     28 C         143.6825  138.9401  163.8551 C.3     1  UNL1        0.0746
     29 H         142.8768  139.6246  162.1069 H       1  UNL1        0.1233
     30 C         144.9404  139.7473  163.9823 C.3     1  UNL1        0.0491
     31 C         145.1079  141.0059  163.1837 C.3     1  UNL1        0.1386
     32 O         146.4008  141.7642  163.2415 O.3     1  UNL1       -0.3819
     33 H         146.5269  142.1208  164.1347 H       1  UNL1        0.2104
@<TRIPOS>BOND
     1    16    17   am
     2    17    18    2
     3    17     1    1
     4     1     2   ar
     5     2     3   ar
     6     3     4   ar
     7     4    21    1
     8    23    21    1
     9    23    24    1
    10    24    25    1
    11    25    26    1
    12    26    27    1
    13    27    28    1
    14    28    30    1
    15    30    31    1
    16    31    32    1
    17     4     5   ar
    18     5     6   ar
    19     6     7   ar
    20     7    10    1
    21    10    11   ar
    22    11    12   ar
    23    12    13   ar
    24    13    14   ar
    25    14    15   ar
    26     7     8   ar
    27     8     9   ar
    28     9     1   ar
    29    28    23    1
    30     9     5   ar
    31    15    10   ar
    32    16    19    1
    33    16    20    1
    34    21    22    1
    35    27    29    1
    36    32    33    1
@<TRIPOS>MOLECULE
*****
 33 36 0 0 0
SMALL
GASTEIGER

@<TRIPOS>ATOM
      1 C         140.6785  140.7789  169.8302 C.ar    1  UNL1        0.0783
      2 C         139.3085  140.2446  170.1262 C.ar    1  UNL1        0.1053
      3 N         138.4643  139.6894  169.0177 N.ar    1  UNL1       -0.2292
      4 C         138.9900  139.6685  167.6129 C.ar    1  UNL1        0.1289
      5 C         140.3600  140.2027  167.3169 C.ar    1  UNL1        0.0380
      6 C         141.1400  140.3130  166.0404 C.ar    1  UNL1        0.0097
      7 C         142.4664  140.9364  166.3601 C.ar    1  UNL1        0.0296
      8 S         142.5061  141.2114  167.8342 S.2     1  UNL1       -0.0866
      9 C         141.2042  140.7579  168.4255 C.ar    1  UNL1        0.0380
     10 C         143.5609  141.2327  165.3782 C.ar    1  UNL1        0.0060
     11 C         144.2242  140.1122  164.6337 C.ar    1  UNL1        0.0005
     12 C         145.3188  140.4087  163.6517 C.ar    1  UNL1        0.0000
     13 C         145.7500  141.8256  163.4144 C.ar    1  UNL1        0.0000
     14 C         145.0867  142.9461  164.1589 C.ar    1  UNL1        0.0000
     15 C         143.9921  142.6496  165.1408 C.ar    1  UNL1        0.0005
     16 N         142.4371  140.4294  171.7103 N.am    1  UNL1       -0.3253
     17 C         141.5227  141.3341  170.9388 C.2     1  UNL1        0.2448
     18 O         141.4525  142.7941  171.2759 O.2     1  UNL1       -0.2703
     19 H         142.9912  140.7938  172.4379 H       1  UNL1        0.1453
     20 H         142.4832  139.4711  171.4891 H       1  UNL1        0.1453
     21 N         138.1457  139.1132  166.5043 N.pl3   1  UNL1       -0.3184
     22 H         137.5340  138.3622  166.6803 H       1  UNL1        0.1482
     23 C         138.2334  139.7023  165.1277 C.3     1  UNL1        0.0848
     24 C         137.7496  141.1000  164.8778 C.3     1  UNL1        0.0223
     25 C         137.8373  141.6891  163.5011 C.3     1  UNL1        0.0188
     26 C         138.4089  140.8806  162.3744 C.3     1  UNL1        0.0686
     27 N         138.8927  139.4829  162.6242 N.3     1  UNL1       -0.2971
     28 C         138.8050  138.8938  164.0009 C.3     1  UNL1        0.0746
     29 H         139.8765  139.4595  162.3561 H       1  UNL1        0.1233
     30 C         139.2888  137.4961  164.2508 C.3     1  UNL1        0.0491
     31 C         140.7526  137.1815  164.1594 C.3     1  UNL1        0.1386
     32 O         141.3404  136.7183  162.8594 O.3     1  UNL1       -0.3819
     33 H         140.9731  135.8504  162.6295 H       1  UNL1        0.2104
@<TRIPOS>BOND
     1    16    17   am
     2    17    18    2
     3    17     1    1
     4     1     2   ar
     5     2     3   ar
     6     3     4   ar
     7     4    21    1
     8    23    21    1
     9    23    24    1
    10    24    25    1
    11    25    26    1
    12    26    27    1
    13    27    28    1
    14    28    30    1
    15    30    31    1
    16    31    32    1
    17     4     5   ar
    18     5     6   ar
    19     6     7   ar
    20     7    10    1
    21    10    11   ar
    22    11    12   ar
    23    12    13   ar
    24    13    14   ar
    25    14    15   ar
    26     7     8   ar
    27     8     9   ar
    28     9     1   ar
    29    28    23    1
    30     9     5   ar
    31    15    10   ar
    32    16    19    1
    33    16    20    1
    34    21    22    1
    35    27    29    1
    36    32    33    1
@<TRIPOS>MOLECULE
*****
 33 36 0 0 0
SMALL
GASTEIGER

@<TRIPOS>ATOM
      1 C         141.9728  141.3518  169.5529 C.ar    1  UNL1        0.0783
      2 C         142.8124  140.1611  169.9099 C.ar    1  UNL1        0.1053
      3 N         143.1302  139.1285  168.8696 N.ar    1  UNL1       -0.2292
      4 C         142.6084  139.2863  167.4720 C.ar    1  UNL1        0.1289
      5 C         141.7688  140.4769  167.1150 C.ar    1  UNL1        0.0380
      6 C         141.1195  140.8981  165.8302 C.ar    1  UNL1        0.0097
      7 C         140.4003  142.1912  166.0765 C.ar    1  UNL1        0.0296
      8 S         140.6052  142.5692  167.5136 S.2     1  UNL1       -0.0866
      9 C         141.4510  141.5096  168.1554 C.ar    1  UNL1        0.0380
     10 C         139.6143  142.9698  165.0635 C.ar    1  UNL1        0.0060
     11 C         140.1394  144.2780  164.5509 C.ar    1  UNL1        0.0005
     12 C         139.3533  145.0565  163.5380 C.ar    1  UNL1        0.0000
     13 C         138.0422  144.5269  163.0377 C.ar    1  UNL1        0.0000
     14 C         137.5171  143.2186  163.5503 C.ar    1  UNL1        0.0000
     15 C         138.3032  142.4401  164.5632 C.ar    1  UNL1        0.0005
     16 N         140.4944  142.1814  171.5217 N.am    1  UNL1       -0.3253
     17 C         141.6549  142.3845  170.5933 C.2     1  UNL1        0.2448
     18 O         142.4976  143.6204  170.7052 O.2     1  UNL1       -0.2703
     19 H         140.2859  142.8592  172.2046 H       1  UNL1        0.1453
     20 H         139.9414  141.3702  171.4482 H       1  UNL1        0.1453
     21 N         142.9263  138.2535  166.4317 N.pl3   1  UNL1       -0.3184
     22 H         142.8946  137.2968  166.6620 H       1  UNL1        0.1482
     23 C         143.2925  138.6783  165.0405 C.3     1  UNL1        0.0848
     24 C         144.4602  139.5933  164.8187 C.3     1  UNL1        0.0223
     25 C         144.8265  140.0182  163.4276 C.3     1  UNL1        0.0188
     26 C         144.0251  139.5280  162.2582 C.3     1  UNL1        0.0686
     27 N         142.8574  138.6129  162.4800 N.3     1  UNL1       -0.2971
     28 C         142.4911  138.1881  163.8711 C.3     1  UNL1        0.0746
     29 H         143.0466  137.7609  161.9521 H       1  UNL1        0.1233
     30 C         141.3234  137.2730  164.0929 C.3     1  UNL1        0.0491
     31 C         140.0038  137.5705  163.4448 C.3     1  UNL1        0.1386
     32 O         139.9570  138.0481  162.0236 O.3     1  UNL1       -0.3819
     33 H         140.3687  138.9243  161.9632 H       1  UNL1        0.2104
@<TRIPOS>BOND
     1    16    17   am
     2    17    18    2
     3    17     1    1
     4     1     2   ar
     5     2     3   ar
     6     3     4   ar
     7     4    21    1
     8    23    21    1
     9    23    24    1
    10    24    25    1
    11    25    26    1
    12    26    27    1
    13    27    28    1
    14    28    30    1
    15    30    31    1
    16    31    32    1
    17     4     5   ar
    18     5     6   ar
    19     6     7   ar
    20     7    10    1
    21    10    11   ar
    22    11    12   ar
    23    12    13   ar
    24    13    14   ar
    25    14    15   ar
    26     7     8   ar
    27     8     9   ar
    28     9     1   ar
    29    28    23    1
    30     9     5   ar
    31    15    10   ar
    32    16    19    1
    33    16    20    1
    34    21    22    1
    35    27    29    1
    36    32    33    1
@<TRIPOS>MOLECULE
*****
 33 36 0 0 0
SMALL
GASTEIGER

@<TRIPOS>ATOM
      1 C         138.4615  139.8069  165.0192 C.ar    1  UNL1        0.0783
      2 C         137.8021  140.1505  163.7164 C.ar    1  UNL1        0.1053
      3 N         137.9834  141.5153  163.1212 N.ar    1  UNL1       -0.2292
      4 C         138.8241  142.5365  163.8286 C.ar    1  UNL1        0.1289
      5 C         139.4835  142.1929  165.1313 C.ar    1  UNL1        0.0380
      6 C         140.3632  142.9867  166.0510 C.ar    1  UNL1        0.0097
      7 C         140.7256  142.1124  167.2148 C.ar    1  UNL1        0.0296
      8 S         140.0699  140.7783  167.0143 S.2     1  UNL1       -0.0866
      9 C         139.3022  140.8280  165.7266 C.ar    1  UNL1        0.0380
     10 C         141.5917  142.5036  168.3754 C.ar    1  UNL1        0.0060
     11 C         141.0187  143.3164  169.4984 C.ar    1  UNL1        0.0005
     12 C         141.8849  143.7075  170.6589 C.ar    1  UNL1        0.0000
     13 C         143.3239  143.2859  170.6965 C.ar    1  UNL1        0.0000
     14 C         143.8968  142.4731  169.5735 C.ar    1  UNL1        0.0000
     15 C         143.0307  142.0820  168.4130 C.ar    1  UNL1        0.0005
     16 N         139.0411  137.2746  165.0594 N.am    1  UNL1       -0.3253
     17 C         138.2802  138.4420  165.6145 C.2     1  UNL1        0.2448
     18 O         137.3381  138.2447  166.7649 O.2     1  UNL1       -0.2703
     19 H         138.9221  136.3788  165.4501 H       1  UNL1        0.1453
     20 H         139.6594  137.4041  164.3043 H       1  UNL1        0.1453
     21 N         139.0053  143.9014  163.2332 N.pl3   1  UNL1       -0.3184
     22 H         138.5769  144.6822  163.6526 H       1  UNL1        0.1482
     23 C         139.8394  144.0764  161.9988 C.3     1  UNL1        0.0848
     24 C         139.3661  143.5198  160.6888 C.3     1  UNL1        0.0223
     25 C         140.2001  143.6949  159.4544 C.3     1  UNL1        0.0188
     26 C         141.5074  144.4265  159.5300 C.3     1  UNL1        0.0686
     27 N         141.9807  144.9831  160.8400 N.3     1  UNL1       -0.2971
     28 C         141.1467  144.8081  162.0745 C.3     1  UNL1        0.0746
     29 H         142.1022  145.9870  160.7067 H       1  UNL1        0.1233
     30 C         141.6200  145.3647  163.3845 C.3     1  UNL1        0.0491
     31 C         143.0475  145.1795  163.8062 C.3     1  UNL1        0.1386
     32 O         144.1599  145.5421  162.8674 O.3     1  UNL1       -0.3819
     33 H         144.1397  144.9510  162.0986 H       1  UNL1        0.2104
@<TRIPOS>BOND
     1    16    17   am
     2    17    18    2
     3    17     1    1
     4     1     2   ar
     5     2     3   ar
     6     3     4   ar
     7     4    21    1
     8    23    21    1
     9    23    24    1
    10    24    25    1
    11    25    26    1
    12    26    27    1
    13    27    28    1
    14    28    30    1
    15    30    31    1
    16    31    32    1
    17     4     5   ar
    18     5     6   ar
    19     6     7   ar
    20     7    10    1
    21    10    11   ar
    22    11    12   ar
    23    12    13   ar
    24    13    14   ar
    25    14    15   ar
    26     7     8   ar
    27     8     9   ar
    28     9     1   ar
    29    28    23    1
    30     9     5   ar
    31    15    10   ar
    32    16    19    1
    33    16    20    1
    34    21    22    1
    35    27    29    1
    36    32    33    1
@<TRIPOS>MOLECULE
*****
 33 36 0 0 0
SMALL
GASTEIGER

@<TRIPOS>ATOM
      1 C         141.2814  140.8838  169.4242 C.ar    1  UNL1        0.0783
      2 C         140.0939  140.0790  169.8622 C.ar    1  UNL1        0.1053
      3 N         139.0717  139.6416  168.8555 N.ar    1  UNL1       -0.2292
      4 C         139.2369  140.0091  167.4105 C.ar    1  UNL1        0.1289
      5 C         140.4244  140.8140  166.9725 C.ar    1  UNL1        0.0380
      6 C         140.8513  141.3225  165.6275 C.ar    1  UNL1        0.0097
      7 C         142.1374  142.0742  165.8030 C.ar    1  UNL1        0.0296
      8 S         142.5054  142.0302  167.2565 S.2     1  UNL1       -0.0866
      9 C         141.4467  141.2513  167.9793 C.ar    1  UNL1        0.0380
     10 C         142.9185  142.7511  164.7159 C.ar    1  UNL1        0.0060
     11 C         142.5369  144.1300  164.2655 C.ar    1  UNL1        0.0005
     12 C         143.3180  144.8069  163.1783 C.ar    1  UNL1        0.0000
     13 C         144.4807  144.1048  162.5417 C.ar    1  UNL1        0.0000
     14 C         144.8623  142.7259  162.9921 C.ar    1  UNL1        0.0000
     15 C         144.0811  142.0490  164.0792 C.ar    1  UNL1        0.0005
     16 N         143.5032  140.4628  170.7034 N.am    1  UNL1       -0.3253
     17 C         142.3037  141.3212  170.4310 C.2     1  UNL1        0.2448
     18 O         142.1264  142.6171  171.1654 O.2     1  UNL1       -0.2703
     19 H         144.1742  140.7499  171.3642 H       1  UNL1        0.1453
     20 H         143.6196  139.6123  170.2213 H       1  UNL1        0.1453
     21 N         138.2145  139.5717  166.4038 N.pl3   1  UNL1       -0.3184
     22 H         137.2562  139.6124  166.6257 H       1  UNL1        0.1482
     23 C         138.6522  139.0722  165.0588 C.3     1  UNL1        0.0848
     24 C         139.4399  137.8002  164.9512 C.3     1  UNL1        0.0223
     25 C         139.8777  137.3006  163.6063 C.3     1  UNL1        0.0188
     26 C         139.5278  138.0731  162.3690 C.3     1  UNL1        0.0686
     27 N         138.7401  139.3451  162.4767 N.3     1  UNL1       -0.2971
     28 C         138.3023  139.8446  163.8216 C.3     1  UNL1        0.0746
     29 H         137.8945  139.2157  161.9211 H       1  UNL1        0.1233
     30 C         137.5146  141.1166  163.9292 C.3     1  UNL1        0.0491
     31 C         137.6486  142.1733  162.8731 C.3     1  UNL1        0.1386
     32 O         137.6188  141.7920  161.4226 O.3     1  UNL1       -0.3819
     33 H         138.3984  141.2540  161.2137 H       1  UNL1        0.2104
@<TRIPOS>BOND
     1    16    17   am
     2    17    18    2
     3    17     1    1
     4     1     2   ar
     5     2     3   ar
     6     3     4   ar
     7     4    21    1
     8    23    21    1
     9    23    24    1
    10    24    25    1
    11    25    26    1
    12    26    27    1
    13    27    28    1
    14    28    30    1
    15    30    31    1
    16    31    32    1
    17     4     5   ar
    18     5     6   ar
    19     6     7   ar
    20     7    10    1
    21    10    11   ar
    22    11    12   ar
    23    12    13   ar
    24    13    14   ar
    25    14    15   ar
    26     7     8   ar
    27     8     9   ar
    28     9     1   ar
    29    28    23    1
    30     9     5   ar
    31    15    10   ar
    32    16    19    1
    33    16    20    1
    34    21    22    1
    35    27    29    1
    36    32    33    1
@<TRIPOS>MOLECULE
*****
 33 36 0 0 0
SMALL
GASTEIGER

@<TRIPOS>ATOM
      1 C         138.7974  138.8649  164.8404 C.ar    1  UNL1        0.0783
      2 C         138.1083  138.0992  165.9308 C.ar    1  UNL1        0.1053
      3 N         138.2597  138.5288  167.3598 N.ar    1  UNL1       -0.2292
      4 C         139.1002  139.7241  167.6987 C.ar    1  UNL1        0.1289
      5 C         139.7893  140.4898  166.6084 C.ar    1  UNL1        0.0380
      6 C         140.6760  141.6993  166.6374 C.ar    1  UNL1        0.0097
      7 C         141.0726  142.0172  165.2262 C.ar    1  UNL1        0.0296
      8 S         140.4310  141.0041  164.3249 S.2     1  UNL1       -0.0866
      9 C         139.6379  140.0601  165.1792 C.ar    1  UNL1        0.0380
     10 C         141.9557  143.1493  164.7922 C.ar    1  UNL1        0.0060
     11 C         141.3676  144.3248  164.0696 C.ar    1  UNL1        0.0005
     12 C         142.2508  145.4570  163.6357 C.ar    1  UNL1        0.0000
     13 C         143.7221  145.4137  163.9244 C.ar    1  UNL1        0.0000
     14 C         144.3102  144.2382  164.6471 C.ar    1  UNL1        0.0000
     15 C         143.4270  143.1060  165.0810 C.ar    1  UNL1        0.0005
     16 N         137.6519  139.1226  162.5227 N.am    1  UNL1       -0.3253
     17 C         138.6459  138.4352  163.4112 C.2     1  UNL1        0.2448
     18 O         139.4886  137.3182  162.8706 O.2     1  UNL1       -0.2703
     19 H         137.5525  138.8406  161.5847 H       1  UNL1        0.1453
     20 H         137.0989  139.8557  162.8776 H       1  UNL1        0.1453
     21 N         139.2516  140.1537  169.1280 N.pl3   1  UNL1       -0.3184
     22 H         138.6414  139.8008  169.8153 H       1  UNL1        0.1482
     23 C         140.3326  141.1208  169.5099 C.3     1  UNL1        0.0848
     24 C         140.0086  142.5740  169.6925 C.3     1  UNL1        0.0223
     25 C         141.0896  143.5412  170.0744 C.3     1  UNL1        0.0188
     26 C         142.4946  143.0552  170.2739 C.3     1  UNL1        0.0686
     27 N         142.8186  141.6021  170.0914 N.3     1  UNL1       -0.2971
     28 C         141.7376  140.6348  169.7094 C.3     1  UNL1        0.0746
     29 H         143.2084  141.2741  170.9750 H       1  UNL1        0.1233
     30 C         142.0616  139.1817  169.5269 C.3     1  UNL1        0.0491
     31 C         143.0439  138.5117  170.4413 C.3     1  UNL1        0.1386
     32 O         143.8998  139.3364  171.3564 O.3     1  UNL1       -0.3819
     33 H         144.5102  139.8756  170.8295 H       1  UNL1        0.2104
@<TRIPOS>BOND
     1    16    17   am
     2    17    18    2
     3    17     1    1
     4     1     2   ar
     5     2     3   ar
     6     3     4   ar
     7     4    21    1
     8    23    21    1
     9    23    24    1
    10    24    25    1
    11    25    26    1
    12    26    27    1
    13    27    28    1
    14    28    30    1
    15    30    31    1
    16    31    32    1
    17     4     5   ar
    18     5     6   ar
    19     6     7   ar
    20     7    10    1
    21    10    11   ar
    22    11    12   ar
    23    12    13   ar
    24    13    14   ar
    25    14    15   ar
    26     7     8   ar
    27     8     9   ar
    28     9     1   ar
    29    28    23    1
    30     9     5   ar
    31    15    10   ar
    32    16    19    1
    33    16    20    1
    34    21    22    1
    35    27    29    1
    36    32    33    1
@<TRIPOS>MOLECULE
*****
 33 36 0 0 0
SMALL
GASTEIGER

@<TRIPOS>ATOM
      1 C         142.6756  142.9722  162.4699 C.ar    1  UNL1        0.0783
      2 C         141.8257  142.5920  161.2939 C.ar    1  UNL1        0.1053
      3 N         140.4940  141.9369  161.5115 N.ar    1  UNL1       -0.2292
      4 C         140.0122  141.6619  162.9052 C.ar    1  UNL1        0.1289
      5 C         140.8621  142.0421  164.0812 C.ar    1  UNL1        0.0380
      6 C         140.6527  141.8974  165.5594 C.ar    1  UNL1        0.0097
      7 C         141.8550  142.4631  166.2554 C.ar    1  UNL1        0.0296
      8 S         142.8075  142.9574  165.2073 S.2     1  UNL1       -0.0866
      9 C         142.1938  142.6972  163.8636 C.ar    1  UNL1        0.0380
     10 C         142.0676  142.5239  167.7390 C.ar    1  UNL1        0.0060
     11 C         143.4335  142.2854  168.3114 C.ar    1  UNL1        0.0005
     12 C         143.6460  142.3462  169.7950 C.ar    1  UNL1        0.0000
     13 C         142.4927  142.6454  170.7063 C.ar    1  UNL1        0.0000
     14 C         141.1268  142.8838  170.1340 C.ar    1  UNL1        0.0000
     15 C         140.9143  142.8230  168.6503 C.ar    1  UNL1        0.0005
     16 N         145.1573  142.8283  161.7147 N.am    1  UNL1       -0.3253
     17 C         144.0073  143.6273  162.2523 C.2     1  UNL1        0.2448
     18 O         144.1890  145.0816  162.5722 O.2     1  UNL1       -0.2703
     19 H         146.0314  143.2583  161.5719 H       1  UNL1        0.1453
     20 H         145.0381  141.8739  161.5048 H       1  UNL1        0.1453
     21 N         138.6804  141.0068  163.1227 N.pl3   1  UNL1       -0.3184
     22 H         137.8730  141.3812  162.7019 H       1  UNL1        0.1482
     23 C         138.5789  139.7811  163.9814 C.3     1  UNL1        0.0848
     24 C         138.1035  139.8961  165.3994 C.3     1  UNL1        0.0223
     25 C         138.0019  138.6705  166.2581 C.3     1  UNL1        0.0188
     26 C         138.3758  137.3298  165.6989 C.3     1  UNL1        0.0686
     27 N         138.8512  137.2148  164.2809 N.3     1  UNL1       -0.2971
     28 C         138.9528  138.4404  163.4221 C.3     1  UNL1        0.0746
     29 H         138.2130  136.5755  163.8073 H       1  UNL1        0.1233
     30 C         139.4282  138.3254  162.0041 C.3     1  UNL1        0.0491
     31 C         140.8482  137.9356  161.7185 C.3     1  UNL1        0.1386
     32 O         141.5171  136.8792  162.5471 O.3     1  UNL1       -0.3819
     33 H         141.6162  137.1974  163.4581 H       1  UNL1        0.2104
@<TRIPOS>BOND
     1    16    17   am
     2    17    18    2
     3    17     1    1
     4     1     2   ar
     5     2     3   ar
     6     3     4   ar
     7     4    21    1
     8    23    21    1
     9    23    24    1
    10    24    25    1
    11    25    26    1
    12    26    27    1
    13    27    28    1
    14    28    30    1
    15    30    31    1
    16    31    32    1
    17     4     5   ar
    18     5     6   ar
    19     6     7   ar
    20     7    10    1
    21    10    11   ar
    22    11    12   ar
    23    12    13   ar
    24    13    14   ar
    25    14    15   ar
    26     7     8   ar
    27     8     9   ar
    28     9     1   ar
    29    28    23    1
    30     9     5   ar
    31    15    10   ar
    32    16    19    1
    33    16    20    1
    34    21    22    1
    35    27    29    1
    36    32    33    1
@<TRIPOS>MOLECULE
*****
 33 36 0 0 0
SMALL
GASTEIGER

@<TRIPOS>ATOM
      1 C         140.7611  138.9947  163.1107 C.ar    1  UNL1        0.0783
      2 C         141.2529  139.3693  161.7441 C.ar    1  UNL1        0.1053
      3 N         141.7494  140.7600  161.4808 N.ar    1  UNL1       -0.2292
      4 C         141.7539  141.7762  162.5842 C.ar    1  UNL1        0.1289
      5 C         141.2621  141.4016  163.9508 C.ar    1  UNL1        0.0380
      6 C         141.1479  142.1837  165.2257 C.ar    1  UNL1        0.0097
      7 C         140.5809  141.2763  166.2769 C.ar    1  UNL1        0.0296
      8 S         140.3446  139.9334  165.6517 S.2     1  UNL1       -0.0866
      9 C         140.7656  140.0109  164.2141 C.ar    1  UNL1        0.0380
     10 C         140.2995  141.6467  167.7029 C.ar    1  UNL1        0.0060
     11 C         140.6188  143.0268  168.1964 C.ar    1  UNL1        0.0005
     12 C         140.3374  143.3971  169.6225 C.ar    1  UNL1        0.0000
     13 C         139.7367  142.3874  170.5551 C.ar    1  UNL1        0.0000
     14 C         139.4175  141.0074  170.0617 C.ar    1  UNL1        0.0000
     15 C         139.6989  140.6370  168.6356 C.ar    1  UNL1        0.0005
     16 N         141.2242  136.5336  163.8025 N.am    1  UNL1       -0.3253
     17 C         140.2646  137.6039  163.3740 C.2     1  UNL1        0.2448
     18 O         138.8085  137.2835  163.2088 O.2     1  UNL1       -0.2703
     19 H         140.8983  135.6208  163.9753 H       1  UNL1        0.1453
     20 H         142.1798  136.7439  163.9109 H       1  UNL1        0.1453
     21 N         142.2504  143.1670  162.3208 N.pl3   1  UNL1       -0.3184
     22 H         143.0114  143.5234  162.8337 H       1  UNL1        0.1482
     23 C         141.5874  144.0147  161.2759 C.3     1  UNL1        0.0848
     24 C         142.0481  143.9446  159.8501 C.3     1  UNL1        0.0223
     25 C         141.3852  144.7923  158.8052 C.3     1  UNL1        0.0188
     26 C         140.2615  145.7101  159.1860 C.3     1  UNL1        0.0686
     27 N         139.8008  145.7802  160.6118 N.3     1  UNL1       -0.2971
     28 C         140.4638  144.9325  161.6568 C.3     1  UNL1        0.0746
     29 H         138.8118  145.5308  160.6143 H       1  UNL1        0.1233
     30 C         140.0031  145.0026  163.0825 C.3     1  UNL1        0.0491
     31 C         138.5971  144.6178  163.4362 C.3     1  UNL1        0.1386
     32 O         137.6151  144.2861  162.3519 O.3     1  UNL1       -0.3819
     33 H         137.4380  145.0792  161.8223 H       1  UNL1        0.2104
@<TRIPOS>BOND
     1    16    17   am
     2    17    18    2
     3    17     1    1
     4     1     2   ar
     5     2     3   ar
     6     3     4   ar
     7     4    21    1
     8    23    21    1
     9    23    24    1
    10    24    25    1
    11    25    26    1
    12    26    27    1
    13    27    28    1
    14    28    30    1
    15    30    31    1
    16    31    32    1
    17     4     5   ar
    18     5     6   ar
    19     6     7   ar
    20     7    10    1
    21    10    11   ar
    22    11    12   ar
    23    12    13   ar
    24    13    14   ar
    25    14    15   ar
    26     7     8   ar
    27     8     9   ar
    28     9     1   ar
    29    28    23    1
    30     9     5   ar
    31    15    10   ar
    32    16    19    1
    33    16    20    1
    34    21    22    1
    35    27    29    1
    36    32    33    1
@<TRIPOS>MOLECULE
*****
 33 36 0 0 0
SMALL
GASTEIGER

@<TRIPOS>ATOM
      1 C         139.7363  143.8263  161.4268 C.ar    1  UNL1        0.0783
      2 C         139.0328  143.0813  160.3314 C.ar    1  UNL1        0.1053
      3 N         138.5658  141.6745  160.5610 N.ar    1  UNL1       -0.2292
      4 C         138.8023  141.0127  161.8863 C.ar    1  UNL1        0.1289
      5 C         139.5057  141.7577  162.9817 C.ar    1  UNL1        0.0380
      6 C         139.8775  141.3686  164.3818 C.ar    1  UNL1        0.0097
      7 C         140.5743  142.5350  165.0175 C.ar    1  UNL1        0.0296
      8 S         140.6332  143.6449  164.0102 S.2     1  UNL1       -0.0866
      9 C         139.9727  143.1645  162.7520 C.ar    1  UNL1        0.0380
     10 C         141.1170  142.5830  166.4150 C.ar    1  UNL1        0.0060
     11 C         140.2211  142.9683  167.5547 C.ar    1  UNL1        0.0005
     12 C         140.7639  143.0164  168.9522 C.ar    1  UNL1        0.0000
     13 C         142.2025  142.6791  169.2101 C.ar    1  UNL1        0.0000
     14 C         143.0985  142.2938  168.0705 C.ar    1  UNL1        0.0000
     15 C         142.5557  142.2458  166.6729 C.ar    1  UNL1        0.0005
     16 N         141.5911  145.4891  160.6889 N.am    1  UNL1       -0.3253
     17 C         140.2033  145.2331  161.1971 C.2     1  UNL1        0.2448
     18 O         139.2823  146.3840  161.4756 O.2     1  UNL1       -0.2703
     19 H         141.8976  146.4125  160.5382 H       1  UNL1        0.1453
     20 H         142.1956  144.7338  160.5062 H       1  UNL1        0.1453
     21 N         138.3352  139.6058  162.1159 N.pl3   1  UNL1       -0.3184
     22 H         137.4478  139.3234  161.7966 H       1  UNL1        0.1482
     23 C         139.2203  138.6292  162.8320 C.3     1  UNL1        0.0848
     24 C         138.9382  138.2692  164.2606 C.3     1  UNL1        0.0223
     25 C         139.8232  137.2926  164.9768 C.3     1  UNL1        0.0188
     26 C         140.9903  136.6760  164.2644 C.3     1  UNL1        0.0686
     27 N         141.2725  137.0360  162.8358 N.3     1  UNL1       -0.2971
     28 C         140.3875  138.0126  162.1196 C.3     1  UNL1        0.0746
     29 H         141.2446  136.1672  162.3022 H       1  UNL1        0.1233
     30 C         140.6696  138.3726  160.6910 C.3     1  UNL1        0.0491
     31 C         142.0786  138.3537  160.1770 C.3     1  UNL1        0.1386
     32 O         142.9752  137.1922  160.4890 O.3     1  UNL1       -0.3819
     33 H         143.1499  137.1656  161.4427 H       1  UNL1        0.2104
@<TRIPOS>BOND
     1    16    17   am
     2    17    18    2
     3    17     1    1
     4     1     2   ar
     5     2     3   ar
     6     3     4   ar
     7     4    21    1
     8    23    21    1
     9    23    24    1
    10    24    25    1
    11    25    26    1
    12    26    27    1
    13    27    28    1
    14    28    30    1
    15    30    31    1
    16    31    32    1
    17     4     5   ar
    18     5     6   ar
    19     6     7   ar
    20     7    10    1
    21    10    11   ar
    22    11    12   ar
    23    12    13   ar
    24    13    14   ar
    25    14    15   ar
    26     7     8   ar
    27     8     9   ar
    28     9     1   ar
    29    28    23    1
    30     9     5   ar
    31    15    10   ar
    32    16    19    1
    33    16    20    1
    34    21    22    1
    35    27    29    1
    36    32    33    1
