@<TRIPOS>MOLECULE
*****
 33 37 0 0 0
SMALL
GASTEIGER

@<TRIPOS>ATOM
      1 C         141.1922  142.3124  163.8215 C.ar    1  UNL1        0.1065
      2 N         142.5373  142.0009  163.2353 N.ar    1  UNL1       -0.1679
      3 N         142.7777  142.9482  162.0974 N.ar    1  UNL1       -0.2340
      4 C         141.5811  143.8452  161.9803 C.ar    1  UNL1        0.1653
      5 N         141.2572  144.9690  161.0411 N.ar    1  UNL1       -0.2050
      6 C         139.9533  145.6998  161.1674 C.ar    1  UNL1        0.2014
      7 N         138.9734  145.3068  162.2330 N.ar    1  UNL1       -0.2093
      8 C         139.2973  144.1830  163.1722 C.ar    1  UNL1        0.1316
      9 N         138.3174  143.7900  164.2378 N.pl3   1  UNL1       -0.3425
     10 C         140.6011  143.4522  163.0459 C.ar    1  UNL1        0.0860
     11 H         137.4617  144.2697  164.3207 H       1  UNL1        0.1437
     12 H         138.5301  143.0524  164.8542 H       1  UNL1        0.1437
     13 C         138.7685  140.0475  169.8420 C.ar    1  UNL1        0.2248
     14 C         139.5525  141.3057  170.0703 C.ar    1  UNL1        0.0577
     15 C         140.1940  142.0103  168.9119 C.ar    1  UNL1        0.0063
     16 C         140.0516  141.4567  167.5251 C.ar    1  UNL1        0.0180
     17 C         140.6931  142.1613  166.3667 C.ar    1  UNL1        0.0031
     18 C         140.5506  141.6077  164.9799 C.ar    1  UNL1        0.0196
     19 C         139.7666  140.3494  164.7515 C.ar    1  UNL1        0.0031
     20 C         139.1251  139.6448  165.9099 C.ar    1  UNL1        0.0193
     21 C         139.2676  140.1985  167.2968 C.ar    1  UNL1        0.0844
     22 N         138.6260  139.4939  168.4552 N.ar    1  UNL1       -0.2117
     23 O         138.1270  139.3428  171.0004 O.3     1  UNL1       -0.4602
     24 C         136.1040  137.9275  171.8092 C.3     1  UNL1        0.0512
     25 C         136.6568  139.0464  170.9770 C.3     1  UNL1        0.2072
     26 C         143.9999  142.9911  161.2290 C.3     1  UNL1        0.1291
     27 C         144.0439  142.1985  159.9563 C.3     1  UNL1        0.0272
     28 C         143.6959  140.7394  159.9690 C.3     1  UNL1        0.0194
     29 C         143.7398  139.9468  158.6963 C.3     1  UNL1        0.0722
     30 N         144.1318  140.6131  157.4109 N.3     1  UNL1       -0.2715
     31 C         144.1758  139.8205  156.1382 C.3     1  UNL1        0.0896
     32 C         144.4798  142.0721  157.3982 C.3     1  UNL1        0.0722
     33 C         144.4358  142.8648  158.6709 C.3     1  UNL1        0.0194
@<TRIPOS>BOND
     1    24    25    1
     2    25    23    1
     3    23    13    1
     4    13    14   ar
     5    14    15   ar
     6    15    16   ar
     7    16    17   ar
     8    17    18   ar
     9    18     1    1
    10     1     2   ar
    11     2     3   ar
    12     3    26    1
    13    26    27    1
    14    27    28    1
    15    28    29    1
    16    29    30    1
    17    30    31    1
    18    30    32    1
    19    32    33    1
    20     3     4   ar
    21     4     5   ar
    22     5     6   ar
    23     6     7   ar
    24     7     8   ar
    25     8     9    1
    26     8    10   ar
    27    18    19   ar
    28    19    20   ar
    29    20    21   ar
    30    21    22   ar
    31    22    13   ar
    32    21    16   ar
    33    10     1   ar
    34    33    27    1
    35    10     4   ar
    36     9    11    1
    37     9    12    1
@<TRIPOS>MOLECULE
*****
 33 37 0 0 0
SMALL
GASTEIGER

@<TRIPOS>ATOM
      1 C         140.9294  138.6181  159.9184 C.ar    1  UNL1        0.1065
      2 N         142.0907  137.8154  159.4113 N.ar    1  UNL1       -0.1679
      3 N         141.9676  137.7131  157.9199 N.ar    1  UNL1       -0.2340
      4 C         140.7302  138.4527  157.5051 C.ar    1  UNL1        0.1653
      5 N         140.1048  138.6891  156.1624 N.ar    1  UNL1       -0.2050
      6 C         138.8378  139.4848  156.0548 C.ar    1  UNL1        0.2014
      7 N         138.1962  140.0441  157.2899 N.ar    1  UNL1       -0.2093
      8 C         138.8216  139.8077  158.6326 C.ar    1  UNL1        0.1316
      9 N         138.1800  140.3671  159.8678 N.pl3   1  UNL1       -0.3425
     10 C         140.0886  139.0120  158.7402 C.ar    1  UNL1        0.0860
     11 H         137.3484  140.8893  159.7971 H       1  UNL1        0.1437
     12 H         138.5905  140.2119  160.7491 H       1  UNL1        0.1437
     13 C         139.0125  139.0911  166.5025 C.ar    1  UNL1        0.2248
     14 C         138.4584  137.8250  165.9196 C.ar    1  UNL1        0.0577
     15 C         138.7310  137.4772  164.4861 C.ar    1  UNL1        0.0063
     16 C         139.5576  138.3955  163.6357 C.ar    1  UNL1        0.0180
     17 C         139.8302  138.0477  162.2022 C.ar    1  UNL1        0.0031
     18 C         140.6569  138.9660  161.3518 C.ar    1  UNL1        0.0196
     19 C         141.2110  140.2321  161.9348 C.ar    1  UNL1        0.0031
     20 C         140.9385  140.5800  163.3682 C.ar    1  UNL1        0.0193
     21 C         140.1117  139.6616  164.2187 C.ar    1  UNL1        0.0844
     22 N         139.8392  140.0094  165.6521 N.ar    1  UNL1       -0.2117
     23 O         138.7399  139.4389  167.9360 O.3     1  UNL1       -0.4602
     24 C         139.3010  140.9096  170.0029 C.3     1  UNL1        0.0512
     25 C         139.7094  140.2930  168.6979 C.3     1  UNL1        0.2072
     26 C         142.9153  136.9971  157.0040 C.3     1  UNL1        0.1291
     27 C         142.6677  135.5629  156.6408 C.3     1  UNL1        0.0272
     28 C         141.6477  135.2191  155.5961 C.3     1  UNL1        0.0194
     29 C         141.4002  133.7849  155.2330 C.3     1  UNL1        0.0722
     30 N         142.1725  132.6945  155.9145 N.3     1  UNL1       -0.2715
     31 C         141.9250  131.2604  155.5514 C.3     1  UNL1        0.0896
     32 C         143.1925  133.0384  156.9592 C.3     1  UNL1        0.0722
     33 C         143.4401  134.4726  157.3224 C.3     1  UNL1        0.0194
@<TRIPOS>BOND
     1    24    25    1
     2    25    23    1
     3    23    13    1
     4    13    14   ar
     5    14    15   ar
     6    15    16   ar
     7    16    17   ar
     8    17    18   ar
     9    18     1    1
    10     1     2   ar
    11     2     3   ar
    12     3    26    1
    13    26    27    1
    14    27    28    1
    15    28    29    1
    16    29    30    1
    17    30    31    1
    18    30    32    1
    19    32    33    1
    20     3     4   ar
    21     4     5   ar
    22     5     6   ar
    23     6     7   ar
    24     7     8   ar
    25     8     9    1
    26     8    10   ar
    27    18    19   ar
    28    19    20   ar
    29    20    21   ar
    30    21    22   ar
    31    22    13   ar
    32    21    16   ar
    33    10     1   ar
    34    33    27    1
    35    10     4   ar
    36     9    11    1
    37     9    12    1
@<TRIPOS>MOLECULE
*****
 33 37 0 0 0
SMALL
GASTEIGER

@<TRIPOS>ATOM
      1 C         140.2775  138.7544  160.9270 C.ar    1  UNL1        0.1065
      2 N         141.5177  138.1761  160.3126 N.ar    1  UNL1       -0.1679
      3 N         141.4370  138.3774  158.8284 N.ar    1  UNL1       -0.2340
      4 C         140.1469  139.0802  158.5254 C.ar    1  UNL1        0.1653
      5 N         139.5321  139.5381  157.2361 N.ar    1  UNL1       -0.2050
      6 C         138.2006  140.2290  157.2438 C.ar    1  UNL1        0.2014
      7 N         137.4840  140.4619  158.5409 N.ar    1  UNL1       -0.2093
      8 C         138.0988  140.0040  159.8302 C.ar    1  UNL1        0.1316
      9 N         137.3823  140.2370  161.1272 N.pl3   1  UNL1       -0.3425
     10 C         139.4302  139.3132  159.8224 C.ar    1  UNL1        0.0860
     11 H         136.5084  140.6904  161.1323 H       1  UNL1        0.1437
     12 H         137.7858  139.9365  161.9734 H       1  UNL1        0.1437
     13 C         139.4297  139.9417  167.6443 C.ar    1  UNL1        0.2248
     14 C         140.2533  141.0458  167.0506 C.ar    1  UNL1        0.0577
     15 C         140.5876  141.0292  165.5884 C.ar    1  UNL1        0.0063
     16 C         140.0983  139.9084  164.7199 C.ar    1  UNL1        0.0180
     17 C         140.4326  139.8918  163.2577 C.ar    1  UNL1        0.0031
     18 C         139.9432  138.7710  162.3892 C.ar    1  UNL1        0.0196
     19 C         139.1196  137.6668  162.9828 C.ar    1  UNL1        0.0031
     20 C         138.7853  137.6834  164.4450 C.ar    1  UNL1        0.0193
     21 C         139.2747  138.8043  165.3135 C.ar    1  UNL1        0.0844
     22 N         138.9404  138.8209  166.7757 N.ar    1  UNL1       -0.2117
     23 O         139.0954  139.9583  169.1064 O.3     1  UNL1       -0.4602
     24 C         139.6846  142.1705  170.3348 C.3     1  UNL1        0.0512
     25 C         139.9610  140.7211  170.0650 C.3     1  UNL1        0.2072
     26 C         142.4657  137.9509  157.8235 C.3     1  UNL1        0.1291
     27 C         142.2790  136.6772  157.0536 C.3     1  UNL1        0.0272
     28 C         143.1339  135.4834  157.3601 C.3     1  UNL1        0.0194
     29 C         142.9473  134.2096  156.5902 C.3     1  UNL1        0.0722
     30 N         141.9057  134.1297  155.5138 N.3     1  UNL1       -0.2715
     31 C         141.7191  132.8559  154.7439 C.3     1  UNL1        0.0896
     32 C         141.0508  135.3234  155.2073 C.3     1  UNL1        0.0722
     33 C         141.2374  136.5972  155.9772 C.3     1  UNL1        0.0194
@<TRIPOS>BOND
     1    24    25    1
     2    25    23    1
     3    23    13    1
     4    13    14   ar
     5    14    15   ar
     6    15    16   ar
     7    16    17   ar
     8    17    18   ar
     9    18     1    1
    10     1     2   ar
    11     2     3   ar
    12     3    26    1
    13    26    27    1
    14    27    28    1
    15    28    29    1
    16    29    30    1
    17    30    31    1
    18    30    32    1
    19    32    33    1
    20     3     4   ar
    21     4     5   ar
    22     5     6   ar
    23     6     7   ar
    24     7     8   ar
    25     8     9    1
    26     8    10   ar
    27    18    19   ar
    28    19    20   ar
    29    20    21   ar
    30    21    22   ar
    31    22    13   ar
    32    21    16   ar
    33    10     1   ar
    34    33    27    1
    35    10     4   ar
    36     9    11    1
    37     9    12    1
@<TRIPOS>MOLECULE
*****
 33 37 0 0 0
SMALL
GASTEIGER

@<TRIPOS>ATOM
      1 C         141.8119  138.2823  160.3328 C.ar    1  UNL1        0.1065
      2 N         142.8188  137.5082  159.5348 N.ar    1  UNL1       -0.1679
      3 N         142.3724  137.5054  158.1028 N.ar    1  UNL1       -0.2340
      4 C         141.0896  138.2779  158.0157 C.ar    1  UNL1        0.1653
      5 N         140.1921  138.6062  156.8595 N.ar    1  UNL1       -0.2050
      6 C         138.9482  139.4146  157.0816 C.ar    1  UNL1        0.2014
      7 N         138.6018  139.8948  158.4598 N.ar    1  UNL1       -0.2093
      8 C         139.4993  139.5665  159.6160 C.ar    1  UNL1        0.1316
      9 N         139.1529  140.0466  160.9942 N.pl3   1  UNL1       -0.3425
     10 C         140.7431  138.7581  159.3939 C.ar    1  UNL1        0.0860
     11 H         138.3365  140.5772  161.1399 H       1  UNL1        0.1437
     12 H         139.7420  139.8312  161.7530 H       1  UNL1        0.1437
     13 C         142.6353  140.5632  166.7647 C.ar    1  UNL1        0.2248
     14 C         143.1958  141.5748  165.8095 C.ar    1  UNL1        0.0577
     15 C         143.1431  141.3210  164.3320 C.ar    1  UNL1        0.0063
     16 C         142.5301  140.0555  163.8098 C.ar    1  UNL1        0.0180
     17 C         142.4775  139.8017  162.3324 C.ar    1  UNL1        0.0031
     18 C         141.8645  138.5362  161.8102 C.ar    1  UNL1        0.0196
     19 C         141.3041  137.5245  162.7655 C.ar    1  UNL1        0.0031
     20 C         141.3567  137.7783  164.2429 C.ar    1  UNL1        0.0193
     21 C         141.9697  139.0439  164.7651 C.ar    1  UNL1        0.0844
     22 N         142.0223  139.2977  166.2425 N.ar    1  UNL1       -0.2117
     23 O         142.6880  140.8171  168.2421 O.3     1  UNL1       -0.4602
     24 C         144.0080  142.3997  169.8242 C.3     1  UNL1        0.0512
     25 C         142.9743  142.1967  168.7563 C.3     1  UNL1        0.2072
     26 C         143.0838  136.8460  156.9587 C.3     1  UNL1        0.1291
     27 C         142.7680  135.4246  156.5983 C.3     1  UNL1        0.0272
     28 C         141.7497  135.1283  155.5375 C.3     1  UNL1        0.0194
     29 C         141.4339  133.7069  155.1772 C.3     1  UNL1        0.0722
     30 N         142.1364  132.5818  155.8776 N.3     1  UNL1       -0.2715
     31 C         141.8206  131.1604  155.5172 C.3     1  UNL1        0.0896
     32 C         143.1547  132.8781  156.9383 C.3     1  UNL1        0.0722
     33 C         143.4705  134.2995  157.2987 C.3     1  UNL1        0.0194
@<TRIPOS>BOND
     1    24    25    1
     2    25    23    1
     3    23    13    1
     4    13    14   ar
     5    14    15   ar
     6    15    16   ar
     7    16    17   ar
     8    17    18   ar
     9    18     1    1
    10     1     2   ar
    11     2     3   ar
    12     3    26    1
    13    26    27    1
    14    27    28    1
    15    28    29    1
    16    29    30    1
    17    30    31    1
    18    30    32    1
    19    32    33    1
    20     3     4   ar
    21     4     5   ar
    22     5     6   ar
    23     6     7   ar
    24     7     8   ar
    25     8     9    1
    26     8    10   ar
    27    18    19   ar
    28    19    20   ar
    29    20    21   ar
    30    21    22   ar
    31    22    13   ar
    32    21    16   ar
    33    10     1   ar
    34    33    27    1
    35    10     4   ar
    36     9    11    1
    37     9    12    1
@<TRIPOS>MOLECULE
*****
 33 37 0 0 0
SMALL
GASTEIGER

@<TRIPOS>ATOM
      1 C         142.1024  142.7152  161.9237 C.ar    1  UNL1        0.1065
      2 N         143.3340  142.1724  161.2614 N.ar    1  UNL1       -0.1679
      3 N         143.4795  142.8468  159.9294 N.ar    1  UNL1       -0.2340
      4 C         142.3379  143.8064  159.7686 C.ar    1  UNL1        0.1653
      5 N         141.9633  144.7437  158.6591 N.ar    1  UNL1       -0.2050
      6 C         140.7376  145.5998  158.7820 C.ar    1  UNL1        0.2014
      7 N         139.8866  145.5184  160.0146 N.ar    1  UNL1       -0.2093
      8 C         140.2611  144.5811  161.1241 C.ar    1  UNL1        0.1316
      9 N         139.4101  144.4997  162.3566 N.pl3   1  UNL1       -0.3425
     10 C         141.4867  143.7251  161.0011 C.ar    1  UNL1        0.0860
     11 H         138.6057  145.0615  162.4373 H       1  UNL1        0.1437
     12 H         139.6559  143.8845  163.0848 H       1  UNL1        0.1437
     13 C         139.1323  139.9150  167.4543 C.ar    1  UNL1        0.2248
     14 C         138.7818  139.1014  166.2439 C.ar    1  UNL1        0.0577
     15 C         139.3058  139.4987  164.8957 C.ar    1  UNL1        0.0063
     16 C         140.1802  140.7096  164.7579 C.ar    1  UNL1        0.0180
     17 C         140.7041  141.1069  163.4097 C.ar    1  UNL1        0.0031
     18 C         141.5785  142.3179  163.2719 C.ar    1  UNL1        0.0196
     19 C         141.9290  143.1315  164.4824 C.ar    1  UNL1        0.0031
     20 C         141.4051  142.7342  165.8306 C.ar    1  UNL1        0.0193
     21 C         140.5306  141.5232  165.9683 C.ar    1  UNL1        0.0844
     22 N         140.0067  141.1259  167.3165 N.ar    1  UNL1       -0.2117
     23 O         138.6084  139.5177  168.8025 O.3     1  UNL1       -0.4602
     24 C         140.2713  140.0714  170.7203 C.3     1  UNL1        0.0512
     25 C         138.9714  140.3224  170.0151 C.3     1  UNL1        0.2072
     26 C         144.5743  142.6042  158.9333 C.3     1  UNL1        0.1291
     27 C         144.4847  141.4427  157.9884 C.3     1  UNL1        0.0272
     28 C         143.4163  140.4062  158.1732 C.3     1  UNL1        0.0194
     29 C         143.3267  139.2447  157.2283 C.3     1  UNL1        0.0722
     30 N         144.3055  139.1197  156.0985 N.3     1  UNL1       -0.2715
     31 C         144.2158  137.9581  155.1536 C.3     1  UNL1        0.0896
     32 C         145.3739  140.1562  155.9137 C.3     1  UNL1        0.0722
     33 C         145.4635  141.3177  156.8586 C.3     1  UNL1        0.0194
@<TRIPOS>BOND
     1    24    25    1
     2    25    23    1
     3    23    13    1
     4    13    14   ar
     5    14    15   ar
     6    15    16   ar
     7    16    17   ar
     8    17    18   ar
     9    18     1    1
    10     1     2   ar
    11     2     3   ar
    12     3    26    1
    13    26    27    1
    14    27    28    1
    15    28    29    1
    16    29    30    1
    17    30    31    1
    18    30    32    1
    19    32    33    1
    20     3     4   ar
    21     4     5   ar
    22     5     6   ar
    23     6     7   ar
    24     7     8   ar
    25     8     9    1
    26     8    10   ar
    27    18    19   ar
    28    19    20   ar
    29    20    21   ar
    30    21    22   ar
    31    22    13   ar
    32    21    16   ar
    33    10     1   ar
    34    33    27    1
    35    10     4   ar
    36     9    11    1
    37     9    12    1
@<TRIPOS>MOLECULE
*****
 33 37 0 0 0
SMALL
GASTEIGER

@<TRIPOS>ATOM
      1 C         139.3713  143.3448  160.8056 C.ar    1  UNL1        0.1065
      2 N         138.3020  142.6303  160.0335 N.ar    1  UNL1       -0.1679
      3 N         138.5027  142.9300  158.5775 N.ar    1  UNL1       -0.2340
      4 C         139.6961  143.8298  158.4497 C.ar    1  UNL1        0.1653
      5 N         140.3633  144.4488  157.2574 N.ar    1  UNL1       -0.2050
      6 C         141.5674  145.3243  157.4421 C.ar    1  UNL1        0.2014
      7 N         142.1041  145.5806  158.8191 N.ar    1  UNL1       -0.2093
      8 C         141.4369  144.9616  160.0114 C.ar    1  UNL1        0.1316
      9 N         141.9736  145.2180  161.3885 N.pl3   1  UNL1       -0.3425
     10 C         140.2329  144.0862  159.8267 C.ar    1  UNL1        0.0860
     11 H         142.7639  145.7925  161.5097 H       1  UNL1        0.1437
     12 H         141.5357  144.8117  162.1710 H       1  UNL1        0.1437
     13 C         140.9059  142.1795  167.4038 C.ar    1  UNL1        0.2248
     14 C         141.5572  141.1281  166.5551 C.ar    1  UNL1        0.0577
     15 C         141.3806  141.1509  165.0657 C.ar    1  UNL1        0.0063
     16 C         140.5526  142.2251  164.4250 C.ar    1  UNL1        0.0180
     17 C         140.3759  142.2479  162.9356 C.ar    1  UNL1        0.0031
     18 C         139.5479  143.3220  162.2949 C.ar    1  UNL1        0.0196
     19 C         138.8965  144.3735  163.1436 C.ar    1  UNL1        0.0031
     20 C         139.0732  144.3507  164.6330 C.ar    1  UNL1        0.0193
     21 C         139.9012  143.2765  165.2737 C.ar    1  UNL1        0.0844
     22 N         140.0779  143.2537  166.7631 N.ar    1  UNL1       -0.2117
     23 O         141.0825  142.1567  168.8932 O.3     1  UNL1       -0.4602
     24 C         143.6030  142.1988  169.5220 C.3     1  UNL1        0.0512
     25 C         142.2535  142.8535  169.5203 C.3     1  UNL1        0.2072
     26 C         137.6585  142.4196  157.4477 C.3     1  UNL1        0.1291
     27 C         137.9812  141.1029  156.8057 C.3     1  UNL1        0.0272
     28 C         137.2266  140.6570  155.5884 C.3     1  UNL1        0.0194
     29 C         137.5493  139.3402  154.9465 C.3     1  UNL1        0.0722
     30 N         138.6265  138.4694  155.5219 N.3     1  UNL1       -0.2715
     31 C         138.9492  137.1526  154.8799 C.3     1  UNL1        0.0896
     32 C         139.3811  138.9152  156.7391 C.3     1  UNL1        0.0722
     33 C         139.0584  140.2320  157.3811 C.3     1  UNL1        0.0194
@<TRIPOS>BOND
     1    24    25    1
     2    25    23    1
     3    23    13    1
     4    13    14   ar
     5    14    15   ar
     6    15    16   ar
     7    16    17   ar
     8    17    18   ar
     9    18     1    1
    10     1     2   ar
    11     2     3   ar
    12     3    26    1
    13    26    27    1
    14    27    28    1
    15    28    29    1
    16    29    30    1
    17    30    31    1
    18    30    32    1
    19    32    33    1
    20     3     4   ar
    21     4     5   ar
    22     5     6   ar
    23     6     7   ar
    24     7     8   ar
    25     8     9    1
    26     8    10   ar
    27    18    19   ar
    28    19    20   ar
    29    20    21   ar
    30    21    22   ar
    31    22    13   ar
    32    21    16   ar
    33    10     1   ar
    34    33    27    1
    35    10     4   ar
    36     9    11    1
    37     9    12    1
@<TRIPOS>MOLECULE
*****
 33 37 0 0 0
SMALL
GASTEIGER

@<TRIPOS>ATOM
      1 C         141.2056  141.8836  162.5242 C.ar    1  UNL1        0.1065
      2 N         141.1508  140.8208  163.5813 N.ar    1  UNL1       -0.1679
      3 N         139.9308  141.0631  164.4195 N.ar    1  UNL1       -0.2340
      4 C         139.2315  142.2758  163.8805 C.ar    1  UNL1        0.1653
      5 N         137.9790  142.9838  164.3049 N.ar    1  UNL1       -0.2050
      6 C         137.5145  144.1989  163.5580 C.ar    1  UNL1        0.2014
      7 N         138.3024  144.7059  162.3866 N.ar    1  UNL1       -0.2093
      8 C         139.5549  143.9979  161.9622 C.ar    1  UNL1        0.1316
      9 N         140.3428  144.5049  160.7908 N.pl3   1  UNL1       -0.3425
     10 C         140.0194  142.7829  162.7091 C.ar    1  UNL1        0.0860
     11 H         140.0379  145.3024  160.3006 H       1  UNL1        0.1437
     12 H         141.1648  144.0402  160.5122 H       1  UNL1        0.1437
     13 C         145.1922  141.8862  156.9244 C.ar    1  UNL1        0.2248
     14 C         143.9003  141.1930  156.6072 C.ar    1  UNL1        0.0577
     15 C         142.8447  141.0539  157.6637 C.ar    1  UNL1        0.0063
     16 C         143.0808  141.6079  159.0374 C.ar    1  UNL1        0.0180
     17 C         142.0252  141.4687  160.0939 C.ar    1  UNL1        0.0031
     18 C         142.2613  142.0227  161.4677 C.ar    1  UNL1        0.0196
     19 C         143.5532  142.7159  161.7850 C.ar    1  UNL1        0.0031
     20 C         144.6089  142.8550  160.7285 C.ar    1  UNL1        0.0193
     21 C         144.3727  142.3010  159.3547 C.ar    1  UNL1        0.0844
     22 N         145.4283  142.4401  158.2982 N.ar    1  UNL1       -0.2117
     23 O         146.2478  142.0253  155.8679 O.3     1  UNL1       -0.4602
     24 C         148.8154  141.7765  155.5584 C.3     1  UNL1        0.0512
     25 C         147.6458  142.4112  156.2508 C.3     1  UNL1        0.2072
     26 C         139.4877  140.2379  165.5910 C.3     1  UNL1        0.1291
     27 C         139.7934  140.6928  166.9873 C.3     1  UNL1        0.0272
     28 C         140.5843  141.9476  167.2111 C.3     1  UNL1        0.0194
     29 C         140.8900  142.4025  168.6074 C.3     1  UNL1        0.0722
     30 N         140.4047  141.6028  169.7799 N.3     1  UNL1       -0.2715
     31 C         140.7104  142.0577  171.1762 C.3     1  UNL1        0.0896
     32 C         139.6138  140.3480  169.5562 C.3     1  UNL1        0.0722
     33 C         139.3082  139.8931  168.1599 C.3     1  UNL1        0.0194
@<TRIPOS>BOND
     1    24    25    1
     2    25    23    1
     3    23    13    1
     4    13    14   ar
     5    14    15   ar
     6    15    16   ar
     7    16    17   ar
     8    17    18   ar
     9    18     1    1
    10     1     2   ar
    11     2     3   ar
    12     3    26    1
    13    26    27    1
    14    27    28    1
    15    28    29    1
    16    29    30    1
    17    30    31    1
    18    30    32    1
    19    32    33    1
    20     3     4   ar
    21     4     5   ar
    22     5     6   ar
    23     6     7   ar
    24     7     8   ar
    25     8     9    1
    26     8    10   ar
    27    18    19   ar
    28    19    20   ar
    29    20    21   ar
    30    21    22   ar
    31    22    13   ar
    32    21    16   ar
    33    10     1   ar
    34    33    27    1
    35    10     4   ar
    36     9    11    1
    37     9    12    1
@<TRIPOS>MOLECULE
*****
 33 37 0 0 0
SMALL
GASTEIGER

@<TRIPOS>ATOM
      1 C         141.6370  142.1467  162.5028 C.ar    1  UNL1        0.1065
      2 N         140.7375  141.2406  163.2900 N.ar    1  UNL1       -0.1679
      3 N         141.6000  140.3545  164.1390 N.ar    1  UNL1       -0.2340
      4 C         143.0327  140.7130  163.8765 C.ar    1  UNL1        0.1653
      5 N         144.3195  140.1740  164.4276 N.ar    1  UNL1       -0.2050
      6 C         145.6291  140.7426  163.9674 C.ar    1  UNL1        0.2014
      7 N         145.6519  141.8502  162.9562 N.ar    1  UNL1       -0.2093
      8 C         144.3652  142.3893  162.4051 C.ar    1  UNL1        0.1316
      9 N         144.3880  143.4969  161.3938 N.pl3   1  UNL1       -0.3425
     10 C         143.0556  141.8207  162.8652 C.ar    1  UNL1        0.0860
     11 H         145.2475  143.8701  161.0918 H       1  UNL1        0.1437
     12 H         143.5435  143.8507  161.0321 H       1  UNL1        0.1437
     13 C         139.9346  146.0648  157.1176 C.ar    1  UNL1        0.2248
     14 C         140.4396  144.7421  156.6223 C.ar    1  UNL1        0.0577
     15 C         140.8811  143.6939  157.6003 C.ar    1  UNL1        0.0063
     16 C         140.8175  143.9685  159.0735 C.ar    1  UNL1        0.0180
     17 C         141.2590  142.9203  160.0515 C.ar    1  UNL1        0.0031
     18 C         141.1955  143.1949  161.5248 C.ar    1  UNL1        0.0196
     19 C         140.6905  144.5177  162.0201 C.ar    1  UNL1        0.0031
     20 C         140.2490  145.5658  161.0421 C.ar    1  UNL1        0.0193
     21 C         140.3125  145.2912  159.5688 C.ar    1  UNL1        0.0844
     22 N         139.8710  146.3394  158.5908 N.ar    1  UNL1       -0.2117
     23 O         139.4931  147.1130  156.1396 O.3     1  UNL1       -0.4602
     24 C         139.9833  148.3952  153.9338 C.3     1  UNL1        0.0512
     25 C         140.0818  147.1474  154.7604 C.3     1  UNL1        0.2072
     26 C         141.1152  139.2959  165.0845 C.3     1  UNL1        0.1291
     27 C         141.0034  139.5937  166.5504 C.3     1  UNL1        0.0272
     28 C         142.2305  139.5865  167.4130 C.3     1  UNL1        0.0194
     29 C         142.1187  139.8844  168.8789 C.3     1  UNL1        0.0722
     30 N         140.7797  140.1894  169.4822 N.3     1  UNL1       -0.2715
     31 C         140.6679  140.4872  170.9481 C.3     1  UNL1        0.0896
     32 C         139.5526  140.1966  168.6197 C.3     1  UNL1        0.0722
     33 C         139.6644  139.8987  167.1538 C.3     1  UNL1        0.0194
@<TRIPOS>BOND
     1    24    25    1
     2    25    23    1
     3    23    13    1
     4    13    14   ar
     5    14    15   ar
     6    15    16   ar
     7    16    17   ar
     8    17    18   ar
     9    18     1    1
    10     1     2   ar
    11     2     3   ar
    12     3    26    1
    13    26    27    1
    14    27    28    1
    15    28    29    1
    16    29    30    1
    17    30    31    1
    18    30    32    1
    19    32    33    1
    20     3     4   ar
    21     4     5   ar
    22     5     6   ar
    23     6     7   ar
    24     7     8   ar
    25     8     9    1
    26     8    10   ar
    27    18    19   ar
    28    19    20   ar
    29    20    21   ar
    30    21    22   ar
    31    22    13   ar
    32    21    16   ar
    33    10     1   ar
    34    33    27    1
    35    10     4   ar
    36     9    11    1
    37     9    12    1
@<TRIPOS>MOLECULE
*****
 33 37 0 0 0
SMALL
GASTEIGER

@<TRIPOS>ATOM
      1 C         142.5370  137.6229  157.9903 C.ar    1  UNL1        0.1065
      2 N         143.3072  136.6140  157.1909 N.ar    1  UNL1       -0.1679
      3 N         142.4602  136.2036  156.0229 N.ar    1  UNL1       -0.2340
      4 C         141.1665  136.9588  156.1004 C.ar    1  UNL1        0.1653
      5 N         139.9514  136.9611  155.2209 N.ar    1  UNL1       -0.2050
      6 C         138.7837  137.8405  155.5573 C.ar    1  UNL1        0.2014
      7 N         138.8311  138.7177  156.7731 N.ar    1  UNL1       -0.2093
      8 C         140.0462  138.7154  157.6526 C.ar    1  UNL1        0.1316
      9 N         140.0937  139.5925  158.8685 N.pl3   1  UNL1       -0.3425
     10 C         141.2139  137.8360  157.3163 C.ar    1  UNL1        0.0860
     11 H         139.3273  140.1697  159.0893 H       1  UNL1        0.1437
     12 H         140.8912  139.5910  159.4458 H       1  UNL1        0.1437
     13 C         144.8506  141.7661  162.9632 C.ar    1  UNL1        0.2248
     14 C         144.8132  142.5248  161.6698 C.ar    1  UNL1        0.0577
     15 C         144.3430  141.8479  160.4165 C.ar    1  UNL1        0.0063
     16 C         143.9102  140.4123  160.4567 C.ar    1  UNL1        0.0180
     17 C         143.4400  139.7354  159.2034 C.ar    1  UNL1        0.0031
     18 C         143.0072  138.2998  159.2435 C.ar    1  UNL1        0.0196
     19 C         143.0445  137.5410  160.5370 C.ar    1  UNL1        0.0031
     20 C         143.5147  138.2179  161.7903 C.ar    1  UNL1        0.0193
     21 C         143.9476  139.6536  161.7501 C.ar    1  UNL1        0.0844
     22 N         144.4177  140.3305  163.0034 N.ar    1  UNL1       -0.2117
     23 O         145.3208  142.4430  164.2165 O.3     1  UNL1       -0.4602
     24 C         143.4278  142.2549  165.9860 C.3     1  UNL1        0.0512
     25 C         144.3295  143.0969  165.1329 C.3     1  UNL1        0.2072
     26 C         142.8402  135.2121  154.9635 C.3     1  UNL1        0.1291
     27 C         142.7446  133.7416  155.2436 C.3     1  UNL1        0.0272
     28 C         143.9119  133.0147  155.8428 C.3     1  UNL1        0.0194
     29 C         143.8162  131.5442  156.1229 C.3     1  UNL1        0.0722
     30 N         142.5533  130.8005  155.8038 N.3     1  UNL1       -0.2715
     31 C         142.4576  129.3300  156.0839 C.3     1  UNL1        0.0896
     32 C         141.3860  131.5274  155.2045 C.3     1  UNL1        0.0722
     33 C         141.4816  132.9979  154.9244 C.3     1  UNL1        0.0194
@<TRIPOS>BOND
     1    24    25    1
     2    25    23    1
     3    23    13    1
     4    13    14   ar
     5    14    15   ar
     6    15    16   ar
     7    16    17   ar
     8    17    18   ar
     9    18     1    1
    10     1     2   ar
    11     2     3   ar
    12     3    26    1
    13    26    27    1
    14    27    28    1
    15    28    29    1
    16    29    30    1
    17    30    31    1
    18    30    32    1
    19    32    33    1
    20     3     4   ar
    21     4     5   ar
    22     5     6   ar
    23     6     7   ar
    24     7     8   ar
    25     8     9    1
    26     8    10   ar
    27    18    19   ar
    28    19    20   ar
    29    20    21   ar
    30    21    22   ar
    31    22    13   ar
    32    21    16   ar
    33    10     1   ar
    34    33    27    1
    35    10     4   ar
    36     9    11    1
    37     9    12    1
