@<TRIPOS>MOLECULE
*****
 31 34 0 0 0
SMALL
GASTEIGER

@<TRIPOS>ATOM
      1 C         138.9393  142.4003  164.2643 C.ar    1  UNL1        0.1122
      2 N         139.4786  142.3714  162.8648 N.ar    1  UNL1       -0.2259
      3 C         138.8653  143.5121  162.1080 C.ar    1  UNL1        0.1412
      4 C         137.9469  144.2460  163.0397 C.ar    1  UNL1        0.0710
      5 S         137.9926  143.5589  164.3723 S.2     1  UNL1       -0.0670
      6 C         140.9835  142.9703  169.2388 C.3     1  UNL1        0.0320
      7 C         140.4176  142.4600  167.9468 C.3     1  UNL1        0.1155
      8 C         140.1981  140.9889  167.7532 C.3     1  UNL1        0.0328
      9 C         139.6322  140.4786  166.4612 C.3     1  UNL1        0.0426
     10 C         139.4128  139.0074  166.2676 C.3     1  UNL1        0.0673
     11 S         138.8469  138.4971  164.9756 S.3     1  UNL1       -0.0807
     12 C         138.5004  139.4580  163.8771 C.2     1  UNL1        0.1483
     13 N         137.9345  138.9477  162.5851 N.pl3   1  UNL1       -0.3380
     14 N         138.7199  140.9292  164.0707 N.2     1  UNL1       -0.2464
     15 C         139.2858  141.4395  165.3627 C.3     1  UNL1        0.1549
     16 C         139.5052  142.9106  165.5563 C.3     1  UNL1        0.1705
     17 O         140.0711  143.4209  166.8483 O.3     1  UNL1       -0.3538
     18 H         137.7905  137.9821  162.4580 H       1  UNL1        0.1442
     19 H         137.7071  139.5784  161.8641 H       1  UNL1        0.1442
     20 N         139.1248  143.8581  160.6717 N.am    1  UNL1       -0.2641
     21 C         140.4599  144.4047  160.2614 C.2     1  UNL1        0.2683
     22 O         141.5356  144.6054  161.2874 O.2     1  UNL1       -0.2681
     23 H         138.4188  143.7264  159.9983 H       1  UNL1        0.1566
     24 C         140.7194  144.7507  158.8251 C.ar    1  UNL1        0.1349
     25 C         139.8380  144.1916  157.7479 C.ar    1  UNL1        0.0245
     26 C         140.0975  144.5376  156.3116 C.ar    1  UNL1        0.0135
     27 C         141.2384  145.4427  155.9525 C.ar    1  UNL1        0.0876
     28 C         142.1198  146.0019  157.0297 C.ar    1  UNL1        0.1092
     29 N         141.8603  145.6559  158.4660 N.ar    1  UNL1       -0.2385
     30 C         141.4979  145.7887  154.5162 C.1     1  UNL1        0.1020
     31 N         141.7574  146.1347  153.0799 N.1     1  UNL1       -0.1908
@<TRIPOS>BOND
     1     7     6    1
     2     7     8    1
     3     9     8    1
     4     9    10    1
     5    10    11    1
     6    11    12    1
     7    12    13    1
     8    12    14    2
     9    14    15    1
    10    15     1    1
    11     1     2   ar
    12     2     3   ar
    13     3    20    1
    14    20    21   am
    15    21    22    2
    16    21    24    1
    17    24    25   ar
    18    25    26   ar
    19    26    27   ar
    20    27    30    1
    21    30    31    3
    22    27    28   ar
    23    28    29   ar
    24     3     4   ar
    25     4     5   ar
    26    15    16    1
    27    16    17    1
    28    17     7    1
    29    15     9    1
    30     5     1   ar
    31    29    24   ar
    32    13    18    1
    33    13    19    1
    34    20    23    1
@<TRIPOS>MOLECULE
*****
 31 34 0 0 0
SMALL
GASTEIGER

@<TRIPOS>ATOM
      1 C         139.9408  139.3569  160.3075 C.ar    1  UNL1        0.1122
      2 N         140.3994  140.0598  161.5507 N.ar    1  UNL1       -0.2259
      3 C         140.0015  139.2226  162.7302 C.ar    1  UNL1        0.1412
      4 C         139.2969  138.0024  162.2158 C.ar    1  UNL1        0.0710
      5 S         139.2594  138.0854  160.7185 S.2     1  UNL1       -0.0670
      6 C         136.5845  141.2264  156.5008 C.3     1  UNL1        0.0320
      7 C         137.7664  140.7645  157.3007 C.3     1  UNL1        0.1155
      8 C         139.1378  140.7863  156.6934 C.3     1  UNL1        0.0328
      9 C         140.3197  140.3244  157.4932 C.3     1  UNL1        0.0426
     10 C         141.6911  140.3462  156.8859 C.3     1  UNL1        0.0673
     11 S         142.8730  139.8842  157.6857 S.3     1  UNL1       -0.0807
     12 C         142.6835  139.4005  159.0929 C.2     1  UNL1        0.1483
     13 N         143.8654  138.9386  159.8927 N.pl3   1  UNL1       -0.3380
     14 N         141.3121  139.3787  159.7002 N.2     1  UNL1       -0.2464
     15 C         140.1302  139.8407  158.9004 C.3     1  UNL1        0.1549
     16 C         138.7589  139.8189  159.5077 C.3     1  UNL1        0.1705
     17 O         137.5770  140.2808  158.7078 O.3     1  UNL1       -0.3538
     18 H         144.7655  138.9529  159.4941 H       1  UNL1        0.1442
     19 H         143.7410  138.6211  160.8163 H       1  UNL1        0.1442
     20 N         140.2623  139.5485  164.1709 N.am    1  UNL1       -0.2641
     21 C         139.3671  140.5086  164.8966 C.2     1  UNL1        0.2683
     22 O         138.2110  141.1428  164.1816 O.2     1  UNL1       -0.2681
     23 H         141.0211  139.1323  164.6402 H       1  UNL1        0.1566
     24 C         139.6280  140.8345  166.3374 C.ar    1  UNL1        0.1349
     25 C         139.2862  139.8382  167.4054 C.ar    1  UNL1        0.0245
     26 C         139.5470  140.1641  168.8462 C.ar    1  UNL1        0.0135
     27 C         140.1496  141.4862  169.2189 C.ar    1  UNL1        0.0876
     28 C         140.4914  142.4824  168.1508 C.ar    1  UNL1        0.1092
     29 N         140.2306  142.1565  166.7101 N.ar    1  UNL1       -0.2385
     30 C         140.4105  141.8120  170.6596 C.1     1  UNL1        0.1020
     31 N         140.6713  142.1379  172.1004 N.1     1  UNL1       -0.1908
@<TRIPOS>BOND
     1     7     6    1
     2     7     8    1
     3     9     8    1
     4     9    10    1
     5    10    11    1
     6    11    12    1
     7    12    13    1
     8    12    14    2
     9    14    15    1
    10    15     1    1
    11     1     2   ar
    12     2     3   ar
    13     3    20    1
    14    20    21   am
    15    21    22    2
    16    21    24    1
    17    24    25   ar
    18    25    26   ar
    19    26    27   ar
    20    27    30    1
    21    30    31    3
    22    27    28   ar
    23    28    29   ar
    24     3     4   ar
    25     4     5   ar
    26    15    16    1
    27    16    17    1
    28    17     7    1
    29    15     9    1
    30     5     1   ar
    31    29    24   ar
    32    13    18    1
    33    13    19    1
    34    20    23    1
@<TRIPOS>MOLECULE
*****
 31 34 0 0 0
SMALL
GASTEIGER

@<TRIPOS>ATOM
      1 C         139.9936  142.9227  163.9638 C.ar    1  UNL1        0.1122
      2 N         140.3573  142.9163  162.5086 N.ar    1  UNL1       -0.2259
      3 C         139.5991  144.0225  161.8364 C.ar    1  UNL1        0.1412
      4 C         138.7668  144.7125  162.8763 C.ar    1  UNL1        0.0710
      5 S         139.0106  144.0328  164.1910 S.2     1  UNL1       -0.0670
      6 C         137.8656  138.7562  166.6771 C.3     1  UNL1        0.0320
      7 C         138.7505  139.8321  166.1208 C.3     1  UNL1        0.1155
      8 C         140.1621  139.9692  166.6092 C.3     1  UNL1        0.0328
      9 C         141.0470  141.0451  166.0530 C.3     1  UNL1        0.0426
     10 C         142.4587  141.1822  166.5414 C.3     1  UNL1        0.0673
     11 S         143.3436  142.2581  165.9852 S.3     1  UNL1       -0.0807
     12 C         142.8168  143.1969  164.9405 C.2     1  UNL1        0.1483
     13 N         143.7017  144.2728  164.3843 N.pl3   1  UNL1       -0.3380
     14 N         141.4052  143.0598  164.4522 N.2     1  UNL1       -0.2464
     15 C         140.5203  141.9839  165.0084 C.3     1  UNL1        0.1549
     16 C         139.1087  141.8468  164.5200 C.3     1  UNL1        0.1705
     17 O         138.2238  140.7709  165.0763 O.3     1  UNL1       -0.3538
     18 H         144.6282  144.3628  164.7049 H       1  UNL1        0.1442
     19 H         143.3560  144.8890  163.6987 H       1  UNL1        0.1442
     20 N         139.6622  144.3764  160.3801 N.am    1  UNL1       -0.2641
     21 C         140.9734  144.7510  159.7555 C.2     1  UNL1        0.2683
     22 O         142.2217  144.7717  160.5871 O.2     1  UNL1       -0.2681
     23 H         138.8430  144.3628  159.8343 H       1  UNL1        0.1566
     24 C         141.0365  145.1050  158.2992 C.ar    1  UNL1        0.1349
     25 C         140.0578  146.0845  157.7224 C.ar    1  UNL1        0.0245
     26 C         140.1209  146.4384  156.2661 C.ar    1  UNL1        0.0135
     27 C         141.1625  145.8129  155.3867 C.ar    1  UNL1        0.0876
     28 C         142.1412  144.8334  155.9635 C.ar    1  UNL1        0.1092
     29 N         142.0782  144.4795  157.4198 N.ar    1  UNL1       -0.2385
     30 C         141.2256  146.1669  153.9304 C.1     1  UNL1        0.1020
     31 N         141.2887  146.5209  152.4741 N.1     1  UNL1       -0.1908
@<TRIPOS>BOND
     1     7     6    1
     2     7     8    1
     3     9     8    1
     4     9    10    1
     5    10    11    1
     6    11    12    1
     7    12    13    1
     8    12    14    2
     9    14    15    1
    10    15     1    1
    11     1     2   ar
    12     2     3   ar
    13     3    20    1
    14    20    21   am
    15    21    22    2
    16    21    24    1
    17    24    25   ar
    18    25    26   ar
    19    26    27   ar
    20    27    30    1
    21    30    31    3
    22    27    28   ar
    23    28    29   ar
    24     3     4   ar
    25     4     5   ar
    26    15    16    1
    27    16    17    1
    28    17     7    1
    29    15     9    1
    30     5     1   ar
    31    29    24   ar
    32    13    18    1
    33    13    19    1
    34    20    23    1
@<TRIPOS>MOLECULE
*****
 31 34 0 0 0
SMALL
GASTEIGER

@<TRIPOS>ATOM
      1 C         142.7562  142.2486  165.2098 C.ar    1  UNL1        0.1122
      2 N         141.8736  142.5650  164.0390 N.ar    1  UNL1       -0.2259
      3 C         142.4709  143.7322  163.3101 C.ar    1  UNL1        0.1412
      4 C         143.7227  144.1371  164.0306 C.ar    1  UNL1        0.0710
      5 S         143.8991  143.2203  165.2046 S.2     1  UNL1       -0.0670
      6 C         139.8459  141.8485  169.7507 C.3     1  UNL1        0.0320
      7 C         140.7423  141.6167  168.5705 C.3     1  UNL1        0.1155
      8 C         141.4173  140.2893  168.3907 C.3     1  UNL1        0.0328
      9 C         142.3137  140.0575  167.2105 C.3     1  UNL1        0.0426
     10 C         142.9887  138.7301  167.0307 C.3     1  UNL1        0.0673
     11 S         143.8851  138.4983  165.8505 S.3     1  UNL1       -0.0807
     12 C         144.1063  139.5939  164.8501 C.2     1  UNL1        0.1483
     13 N         145.0027  139.3621  163.6699 N.pl3   1  UNL1       -0.3380
     14 N         143.4313  140.9213  165.0300 N.2     1  UNL1       -0.2464
     15 C         142.5349  141.1531  166.2102 C.3     1  UNL1        0.1549
     16 C         141.8599  142.4804  166.3900 C.3     1  UNL1        0.1705
     17 O         140.9636  142.7122  167.5702 O.3     1  UNL1       -0.3538
     18 H         145.4457  138.4909  163.5519 H       1  UNL1        0.1442
     19 H         145.1479  140.0812  163.0134 H       1  UNL1        0.1442
     20 N         141.9141  144.3805  162.0774 N.am    1  UNL1       -0.2641
     21 C         142.4365  143.9939  160.7256 C.2     1  UNL1        0.2683
     22 O         143.5158  142.9589  160.6065 O.2     1  UNL1       -0.2681
     23 H         141.2058  145.0597  162.1556 H       1  UNL1        0.1566
     24 C         141.8798  144.6422  159.4928 C.ar    1  UNL1        0.1349
     25 C         140.5416  145.3182  159.5401 C.ar    1  UNL1        0.0245
     26 C         139.9848  145.9665  158.3074 C.ar    1  UNL1        0.0135
     27 C         140.7662  145.9389  157.0273 C.ar    1  UNL1        0.0876
     28 C         142.1044  145.2628  156.9800 C.ar    1  UNL1        0.1092
     29 N         142.6612  144.6145  158.2128 N.ar    1  UNL1       -0.2385
     30 C         140.2094  146.5872  155.7946 C.1     1  UNL1        0.1020
     31 N         139.6527  147.2356  154.5618 N.1     1  UNL1       -0.1908
@<TRIPOS>BOND
     1     7     6    1
     2     7     8    1
     3     9     8    1
     4     9    10    1
     5    10    11    1
     6    11    12    1
     7    12    13    1
     8    12    14    2
     9    14    15    1
    10    15     1    1
    11     1     2   ar
    12     2     3   ar
    13     3    20    1
    14    20    21   am
    15    21    22    2
    16    21    24    1
    17    24    25   ar
    18    25    26   ar
    19    26    27   ar
    20    27    30    1
    21    30    31    3
    22    27    28   ar
    23    28    29   ar
    24     3     4   ar
    25     4     5   ar
    26    15    16    1
    27    16    17    1
    28    17     7    1
    29    15     9    1
    30     5     1   ar
    31    29    24   ar
    32    13    18    1
    33    13    19    1
    34    20    23    1
@<TRIPOS>MOLECULE
*****
 31 34 0 0 0
SMALL
GASTEIGER

@<TRIPOS>ATOM
      1 C         140.4129  143.3765  163.8051 C.ar    1  UNL1        0.1122
      2 N         139.9157  142.6027  162.6202 N.ar    1  UNL1       -0.2259
      3 C         139.0031  143.4958  161.8330 C.ar    1  UNL1        0.1412
      4 C         138.9363  144.8216  162.5315 C.ar    1  UNL1        0.0710
      5 S         139.8075  144.7479  163.7502 S.2     1  UNL1       -0.0670
      6 C         139.8389  140.1033  168.0720 C.3     1  UNL1        0.0320
      7 C         140.3428  141.0250  167.0012 C.3     1  UNL1        0.1155
      8 C         141.7846  141.4384  166.9850 C.3     1  UNL1        0.0328
      9 C         142.2886  142.3600  165.9142 C.3     1  UNL1        0.0426
     10 C         143.7304  142.7735  165.8980 C.3     1  UNL1        0.0673
     11 S         144.2344  143.6951  164.8273 S.3     1  UNL1       -0.0807
     12 C         143.2965  144.2034  163.7727 C.2     1  UNL1        0.1483
     13 N         143.8004  145.1250  162.7019 N.pl3   1  UNL1       -0.3380
     14 N         141.8547  143.7899  163.7889 N.2     1  UNL1       -0.2464
     15 C         141.3507  142.8683  164.8597 C.3     1  UNL1        0.1549
     16 C         139.9090  142.4549  164.8759 C.3     1  UNL1        0.1705
     17 O         139.4050  141.5332  165.9467 O.3     1  UNL1       -0.3538
     18 H         144.7467  145.3964  162.6912 H       1  UNL1        0.1442
     19 H         143.1849  145.4586  162.0097 H       1  UNL1        0.1442
     20 N         138.2836  143.1277  160.5693 N.am    1  UNL1       -0.2641
     21 C         139.0589  142.8843  159.3086 C.2     1  UNL1        0.2683
     22 O         140.5538  143.0090  159.3115 O.2     1  UNL1       -0.2681
     23 H         137.3025  143.0458  160.5674 H       1  UNL1        0.1566
     24 C         138.3395  142.5162  158.0449 C.ar    1  UNL1        0.1349
     25 C         138.4158  143.4179  156.8486 C.ar    1  UNL1        0.0245
     26 C         137.6964  143.0498  155.5849 C.ar    1  UNL1        0.0135
     27 C         136.9006  141.7801  155.5175 C.ar    1  UNL1        0.0876
     28 C         136.8243  140.8785  156.7139 C.ar    1  UNL1        0.1092
     29 N         137.5437  141.2466  157.9776 N.ar    1  UNL1       -0.2385
     30 C         136.1812  141.4120  154.2539 C.1     1  UNL1        0.1020
     31 N         135.4616  141.0439  152.9901 N.1     1  UNL1       -0.1908
@<TRIPOS>BOND
     1     7     6    1
     2     7     8    1
     3     9     8    1
     4     9    10    1
     5    10    11    1
     6    11    12    1
     7    12    13    1
     8    12    14    2
     9    14    15    1
    10    15     1    1
    11     1     2   ar
    12     2     3   ar
    13     3    20    1
    14    20    21   am
    15    21    22    2
    16    21    24    1
    17    24    25   ar
    18    25    26   ar
    19    26    27   ar
    20    27    30    1
    21    30    31    3
    22    27    28   ar
    23    28    29   ar
    24     3     4   ar
    25     4     5   ar
    26    15    16    1
    27    16    17    1
    28    17     7    1
    29    15     9    1
    30     5     1   ar
    31    29    24   ar
    32    13    18    1
    33    13    19    1
    34    20    23    1
@<TRIPOS>MOLECULE
*****
 31 34 0 0 0
SMALL
GASTEIGER

@<TRIPOS>ATOM
      1 C         138.8452  141.6251  158.4607 C.ar    1  UNL1        0.1122
      2 N         138.6373  141.9655  159.9067 N.ar    1  UNL1       -0.2259
      3 C         139.5212  141.0716  160.7251 C.ar    1  UNL1        0.1412
      4 C         140.2754  140.1787  159.7848 C.ar    1  UNL1        0.0710
      5 S         139.8576  140.5208  158.3854 S.2     1  UNL1       -0.0670
      6 C         134.5063  140.3729  155.4849 C.3     1  UNL1        0.0320
      7 C         135.7245  141.0069  156.0882 C.3     1  UNL1        0.1155
      8 C         136.2585  142.2907  155.5255 C.3     1  UNL1        0.0328
      9 C         137.4767  142.9247  156.1287 C.3     1  UNL1        0.0426
     10 C         138.0107  144.2086  155.5660 C.3     1  UNL1        0.0673
     11 S         139.2289  144.8426  156.1692 S.3     1  UNL1       -0.0807
     12 C         139.9132  144.1927  157.3353 C.2     1  UNL1        0.1483
     13 N         141.1314  144.8267  157.9385 N.pl3   1  UNL1       -0.3380
     14 N         139.3792  142.9089  157.8980 N.2     1  UNL1       -0.2464
     15 C         138.1610  142.2749  157.2947 C.3     1  UNL1        0.1549
     16 C         137.6270  140.9911  157.8574 C.3     1  UNL1        0.1705
     17 O         136.4087  140.3571  157.2541 O.3     1  UNL1       -0.3538
     18 H         141.4819  145.6693  157.5692 H       1  UNL1        0.1442
     19 H         141.5805  144.4002  158.7038 H       1  UNL1        0.1442
     20 N         139.6315  141.0707  162.2210 N.am    1  UNL1       -0.2641
     21 C         138.8750  140.0578  163.0282 C.2     1  UNL1        0.2683
     22 O         138.0082  139.0457  162.3394 O.2     1  UNL1       -0.2681
     23 H         140.2004  141.7349  162.6731 H       1  UNL1        0.1566
     24 C         138.9853  140.0569  164.5241 C.ar    1  UNL1        0.1349
     25 C         138.2768  139.0071  165.3278 C.ar    1  UNL1        0.0245
     26 C         138.3871  139.0062  166.8237 C.ar    1  UNL1        0.0135
     27 C         139.2059  140.0551  167.5160 C.ar    1  UNL1        0.0876
     28 C         139.9144  141.1049  166.7124 C.ar    1  UNL1        0.1092
     29 N         139.8041  141.1058  165.2164 N.ar    1  UNL1       -0.2385
     30 C         139.3162  140.0542  169.0119 C.1     1  UNL1        0.1020
     31 N         139.4265  140.0533  170.5080 N.1     1  UNL1       -0.1908
@<TRIPOS>BOND
     1     7     6    1
     2     7     8    1
     3     9     8    1
     4     9    10    1
     5    10    11    1
     6    11    12    1
     7    12    13    1
     8    12    14    2
     9    14    15    1
    10    15     1    1
    11     1     2   ar
    12     2     3   ar
    13     3    20    1
    14    20    21   am
    15    21    22    2
    16    21    24    1
    17    24    25   ar
    18    25    26   ar
    19    26    27   ar
    20    27    30    1
    21    30    31    3
    22    27    28   ar
    23    28    29   ar
    24     3     4   ar
    25     4     5   ar
    26    15    16    1
    27    16    17    1
    28    17     7    1
    29    15     9    1
    30     5     1   ar
    31    29    24   ar
    32    13    18    1
    33    13    19    1
    34    20    23    1
@<TRIPOS>MOLECULE
*****
 31 34 0 0 0
SMALL
GASTEIGER

@<TRIPOS>ATOM
      1 C         139.0450  142.6229  159.8313 C.ar    1  UNL1        0.1122
      2 N         139.3121  143.1733  161.2009 N.ar    1  UNL1       -0.2259
      3 C         138.9029  142.1366  162.2050 C.ar    1  UNL1        0.1412
      4 C         138.3830  140.9456  161.4558 C.ar    1  UNL1        0.0710
      5 S         138.4708  141.2461  159.9889 S.2     1  UNL1       -0.0670
      6 C         136.7592  142.4237  154.9338 C.3     1  UNL1        0.0320
      7 C         137.6082  142.7244  156.1333 C.3     1  UNL1        0.1155
      8 C         138.7185  143.7281  156.0337 C.3     1  UNL1        0.0328
      9 C         139.5675  144.0288  157.2332 C.3     1  UNL1        0.0426
     10 C         140.6778  145.0325  157.1335 C.3     1  UNL1        0.0673
     11 S         141.5268  145.3332  158.3330 S.3     1  UNL1       -0.0807
     12 C         141.2655  144.6302  159.6321 C.2     1  UNL1        0.1483
     13 N         142.1145  144.9309  160.8316 N.pl3   1  UNL1       -0.3380
     14 N         140.1553  143.6266  159.7317 N.2     1  UNL1       -0.2464
     15 C         139.3063  143.3259  158.5322 C.3     1  UNL1        0.1549
     16 C         138.1960  142.3222  158.6318 C.3     1  UNL1        0.1705
     17 O         137.3470  142.0215  157.4323 O.3     1  UNL1       -0.3538
     18 H         142.8433  145.5897  160.7662 H       1  UNL1        0.1442
     19 H         141.9431  144.4696  161.6842 H       1  UNL1        0.1442
     20 N         138.9972  142.2680  163.6962 N.am    1  UNL1       -0.2641
     21 C         139.9380  141.3914  164.4683 C.2     1  UNL1        0.2683
     22 O         140.7847  140.3834  163.7492 O.2     1  UNL1       -0.2681
     23 H         138.4415  142.9296  164.1682 H       1  UNL1        0.1566
     24 C         140.0323  141.5228  165.9596 C.ar    1  UNL1        0.1349
     25 C         140.4091  142.8381  166.5743 C.ar    1  UNL1        0.0245
     26 C         140.5033  142.9695  168.0655 C.ar    1  UNL1        0.0135
     27 C         140.2208  141.7856  168.9421 C.ar    1  UNL1        0.0876
     28 C         139.8440  140.4702  168.3274 C.ar    1  UNL1        0.1092
     29 N         139.7497  140.3389  166.8361 N.ar    1  UNL1       -0.2385
     30 C         140.3150  141.9169  170.4333 C.1     1  UNL1        0.1020
     31 N         140.4092  142.0483  171.9247 N.1     1  UNL1       -0.1908
@<TRIPOS>BOND
     1     7     6    1
     2     7     8    1
     3     9     8    1
     4     9    10    1
     5    10    11    1
     6    11    12    1
     7    12    13    1
     8    12    14    2
     9    14    15    1
    10    15     1    1
    11     1     2   ar
    12     2     3   ar
    13     3    20    1
    14    20    21   am
    15    21    22    2
    16    21    24    1
    17    24    25   ar
    18    25    26   ar
    19    26    27   ar
    20    27    30    1
    21    30    31    3
    22    27    28   ar
    23    28    29   ar
    24     3     4   ar
    25     4     5   ar
    26    15    16    1
    27    16    17    1
    28    17     7    1
    29    15     9    1
    30     5     1   ar
    31    29    24   ar
    32    13    18    1
    33    13    19    1
    34    20    23    1
@<TRIPOS>MOLECULE
*****
 31 34 0 0 0
SMALL
GASTEIGER

@<TRIPOS>ATOM
      1 C         142.3690  143.4809  163.5019 C.ar    1  UNL1        0.1122
      2 N         142.4570  142.6877  162.2318 N.ar    1  UNL1       -0.2259
      3 C         143.7459  143.0432  161.5516 C.ar    1  UNL1        0.1412
      4 C         144.4545  144.0561  162.4015 C.ar    1  UNL1        0.0710
      5 S         143.6036  144.3266  163.6068 S.2     1  UNL1       -0.0670
      6 C         141.9253  141.7119  168.5934 C.3     1  UNL1        0.0320
      7 C         141.6982  142.2867  167.2267 C.3     1  UNL1        0.1155
      8 C         140.3463  142.8168  166.8511 C.3     1  UNL1        0.0328
      9 C         140.1192  143.3916  165.4843 C.3     1  UNL1        0.0426
     10 C         138.7672  143.9218  165.1088 C.3     1  UNL1        0.0673
     11 S         138.5401  144.4966  163.7420 S.3     1  UNL1       -0.0807
     12 C         139.6651  144.5412  162.7508 C.2     1  UNL1        0.1483
     13 N         139.4381  145.1160  161.3840 N.pl3   1  UNL1       -0.3380
     14 N         141.0171  144.0111  163.1264 N.2     1  UNL1       -0.2464
     15 C         141.2441  143.4363  164.4931 C.3     1  UNL1        0.1549
     16 C         142.5961  142.9061  164.8687 C.3     1  UNL1        0.1705
     17 O         142.8231  142.3313  166.2355 O.3     1  UNL1       -0.3538
     18 H         138.5507  145.4640  161.1375 H       1  UNL1        0.1442
     19 H         140.1764  145.1453  160.7335 H       1  UNL1        0.1442
     20 N         144.2396  142.4840  160.2503 N.am    1  UNL1       -0.2641
     21 C         143.7341  143.0436  158.9537 C.2     1  UNL1        0.2683
     22 O         142.7349  144.1625  158.9584 O.2     1  UNL1       -0.2681
     23 H         144.8953  141.7497  160.2471 H       1  UNL1        0.1566
     24 C         144.2277  142.4844  157.6523 C.ar    1  UNL1        0.1349
     25 C         145.6962  142.2643  157.4394 C.ar    1  UNL1        0.0245
     26 C         146.1898  141.7051  156.1380 C.ar    1  UNL1        0.0135
     27 C         145.2151  141.3660  155.0495 C.ar    1  UNL1        0.0876
     28 C         143.7466  141.5861  155.2624 C.ar    1  UNL1        0.1092
     29 N         143.2530  142.1453  156.5638 N.ar    1  UNL1       -0.2385
     30 C         145.7087  140.8068  153.7481 C.1     1  UNL1        0.1020
     31 N         146.2024  140.2476  152.4467 N.1     1  UNL1       -0.1908
@<TRIPOS>BOND
     1     7     6    1
     2     7     8    1
     3     9     8    1
     4     9    10    1
     5    10    11    1
     6    11    12    1
     7    12    13    1
     8    12    14    2
     9    14    15    1
    10    15     1    1
    11     1     2   ar
    12     2     3   ar
    13     3    20    1
    14    20    21   am
    15    21    22    2
    16    21    24    1
    17    24    25   ar
    18    25    26   ar
    19    26    27   ar
    20    27    30    1
    21    30    31    3
    22    27    28   ar
    23    28    29   ar
    24     3     4   ar
    25     4     5   ar
    26    15    16    1
    27    16    17    1
    28    17     7    1
    29    15     9    1
    30     5     1   ar
    31    29    24   ar
    32    13    18    1
    33    13    19    1
    34    20    23    1
@<TRIPOS>MOLECULE
*****
 31 34 0 0 0
SMALL
GASTEIGER

@<TRIPOS>ATOM
      1 C         141.4196  142.3025  162.6216 C.ar    1  UNL1        0.1122
      2 N         141.7665  142.2277  161.1641 N.ar    1  UNL1       -0.2259
      3 C         143.2304  142.5217  161.0203 C.ar    1  UNL1        0.1412
      4 C         143.7883  142.7782  162.3889 C.ar    1  UNL1        0.0710
      5 S         142.6692  142.6427  163.3785 S.2     1  UNL1       -0.0670
      6 C         138.8521  137.9569  164.5641 C.3     1  UNL1        0.0320
      7 C         139.2553  139.3302  164.1152 C.3     1  UNL1        0.1155
      8 C         138.3006  140.4777  164.2622 C.3     1  UNL1        0.0328
      9 C         138.7038  141.8510  163.8133 C.3     1  UNL1        0.0426
     10 C         137.7490  142.9986  163.9603 C.3     1  UNL1        0.0673
     11 S         138.1522  144.3718  163.5114 S.3     1  UNL1       -0.0807
     12 C         139.5102  144.5976  162.9155 C.2     1  UNL1        0.1483
     13 N         139.9134  145.9709  162.4666 N.pl3   1  UNL1       -0.3380
     14 N         140.4649  143.4500  162.7685 N.2     1  UNL1       -0.2464
     15 C         140.0617  142.0767  163.2174 C.3     1  UNL1        0.1549
     16 C         141.0164  140.9292  163.0704 C.3     1  UNL1        0.1705
     17 O         140.6132  139.5559  163.5193 O.3     1  UNL1       -0.3538
     18 H         139.2868  146.7240  162.5631 H       1  UNL1        0.1442
     19 H         140.8047  146.1190  162.0755 H       1  UNL1        0.1442
     20 N         144.0011  142.5535  159.7338 N.am    1  UNL1       -0.2641
     21 C         144.2102  141.2898  158.9534 C.2     1  UNL1        0.2683
     22 O         143.6486  139.9942  159.4594 O.2     1  UNL1       -0.2681
     23 H         144.3697  143.4039  159.4018 H       1  UNL1        0.1566
     24 C         144.9809  141.3217  157.6669 C.ar    1  UNL1        0.1349
     25 C         145.8891  142.4768  157.3651 C.ar    1  UNL1        0.0245
     26 C         146.6598  142.5086  156.0786 C.ar    1  UNL1        0.0135
     27 C         146.5223  141.3855  155.0940 C.ar    1  UNL1        0.0876
     28 C         145.6141  140.2305  155.3958 C.ar    1  UNL1        0.1092
     29 N         144.8435  140.1986  156.6822 N.ar    1  UNL1       -0.2385
     30 C         147.2930  141.4174  153.8075 C.1     1  UNL1        0.1020
     31 N         148.0638  141.4493  152.5210 N.1     1  UNL1       -0.1908
@<TRIPOS>BOND
     1     7     6    1
     2     7     8    1
     3     9     8    1
     4     9    10    1
     5    10    11    1
     6    11    12    1
     7    12    13    1
     8    12    14    2
     9    14    15    1
    10    15     1    1
    11     1     2   ar
    12     2     3   ar
    13     3    20    1
    14    20    21   am
    15    21    22    2
    16    21    24    1
    17    24    25   ar
    18    25    26   ar
    19    26    27   ar
    20    27    30    1
    21    30    31    3
    22    27    28   ar
    23    28    29   ar
    24     3     4   ar
    25     4     5   ar
    26    15    16    1
    27    16    17    1
    28    17     7    1
    29    15     9    1
    30     5     1   ar
    31    29    24   ar
    32    13    18    1
    33    13    19    1
    34    20    23    1
