@<TRIPOS>MOLECULE
*****
 30 32 0 0 0
SMALL
GASTEIGER

@<TRIPOS>ATOM
      1 C         138.8041  138.8456  165.9517 C.3     1  UNL1        0.0337
      2 C         139.0309  140.3157  165.7582 C.3     1  UNL1        0.1467
      3 N         138.0175  140.1679  164.6623 N.am    1  UNL1       -0.2806
      4 C         137.8199  141.5132  164.0291 C.2     1  UNL1        0.3106
      5 O         136.8937  141.8246  162.8911 O.2     1  UNL1       -0.2521
      6 N         138.7113  142.4926  164.7337 N.am    1  UNL1       -0.2049
      7 C         139.4597  141.7524  165.8023 C.2     1  UNL1        0.2527
      8 O         140.4612  142.3450  166.7489 O.2     1  UNL1       -0.2723
      9 H         137.5619  139.3342  164.4040 H       1  UNL1        0.1516
     10 C         139.9970  140.1562  166.8946 C.ar    1  UNL1        0.0021
     11 C         141.4474  139.8955  166.6150 C.ar    1  UNL1       -0.0009
     12 C         142.4134  139.7360  167.7514 C.ar    1  UNL1        0.0196
     13 C         141.9289  139.8371  169.1674 C.ar    1  UNL1        0.1217
     14 C         140.4785  140.0977  169.4470 C.ar    1  UNL1        0.0196
     15 C         139.5125  140.2572  168.3106 C.ar    1  UNL1       -0.0009
     16 S         142.8950  139.6775  170.3038 S.O2    1  UNL1        0.0572
     17 N         143.8610  139.5179  171.4401 N.3     1  UNL1       -0.2035
     18 O         142.6998  141.1184  170.6721 O.2     1  UNL1       -0.1532
     19 O         143.0902  138.2366  169.9355 O.2     1  UNL1       -0.1532
     20 H         143.9548  140.4055  171.9338 H       1  UNL1        0.1442
     21 H         144.7703  139.2337  171.0759 H       1  UNL1        0.1442
     22 C         138.8328  143.9552  164.4239 C.3     1  UNL1        0.1719
     23 C         139.5203  144.4011  163.1675 C.2     1  UNL1        0.1995
     24 O         138.7096  144.8359  161.9827 O.2     1  UNL1       -0.2890
     25 C         141.0185  144.4121  163.0959 C.ar    1  UNL1        0.0667
     26 C         141.9309  145.3289  163.8556 C.ar    1  UNL1        0.0108
     27 C         143.3437  144.9917  163.4811 C.ar    1  UNL1        0.0186
     28 C         143.3046  143.8665  162.4900 C.ar    1  UNL1        0.0870
     29 CL        144.4937  143.2141  161.8495 Cl      1  UNL1       -0.0752
     30 S         141.8676  143.5083  162.2519 S.2     1  UNL1       -0.0726
@<TRIPOS>BOND
     1     1     2    1
     2     2    10    1
     3    10    11   ar
     4    11    12   ar
     5    12    13   ar
     6    13    16    1
     7    16    17    1
     8    16    18    2
     9    16    19    2
    10    13    14   ar
    11    14    15   ar
    12     2     3    1
    13     3     4   am
    14     4     5    2
    15     4     6   am
    16     6    22    1
    17    22    23    1
    18    23    24    2
    19    23    25    1
    20    25    26   ar
    21    26    27   ar
    22    27    28   ar
    23    28    29    1
    24    28    30   ar
    25     6     7   am
    26     7     8    2
    27     7     2    1
    28    15    10   ar
    29    30    25   ar
    30    17    20    1
    31    17    21    1
    32     3     9    1
@<TRIPOS>MOLECULE
*****
 30 32 0 0 0
SMALL
GASTEIGER

@<TRIPOS>ATOM
      1 C         143.6671  138.6544  166.0576 C.3     1  UNL1        0.0337
      2 C         142.2201  139.0011  165.8687 C.3     1  UNL1        0.1467
      3 N         142.2669  137.9407  164.8088 N.am    1  UNL1       -0.2806
      4 C         140.9022  137.8386  164.1948 C.2     1  UNL1        0.3106
      5 O         140.4985  136.9034  163.0937 O.2     1  UNL1       -0.2521
      6 N         140.0119  138.8359  164.8751 N.am    1  UNL1       -0.2049
      7 C         140.8264  139.5543  165.9097 C.2     1  UNL1        0.2527
      8 O         140.3338  140.6362  166.8246 O.2     1  UNL1       -0.2723
      9 H         143.0549  137.4056  164.5600 H       1  UNL1        0.1516
     10 C         142.4758  139.9890  166.9681 C.ar    1  UNL1        0.0021
     11 C         142.8695  141.3974  166.6343 C.ar    1  UNL1       -0.0009
     12 C         143.1252  142.3852  167.7336 C.ar    1  UNL1        0.0196
     13 C         142.9873  141.9647  169.1669 C.ar    1  UNL1        0.1217
     14 C         142.5937  140.5564  169.5007 C.ar    1  UNL1        0.0196
     15 C         142.3379  139.5685  168.4014 C.ar    1  UNL1       -0.0009
     16 S         143.2431  142.9527  170.2663 S.O2    1  UNL1        0.0572
     17 N         143.4989  143.9406  171.3656 N.3     1  UNL1       -0.2035
     18 O         141.7808  142.9598  170.6002 O.2     1  UNL1       -0.1532
     19 O         144.7054  142.9456  169.9324 O.2     1  UNL1       -0.1532
     20 H         142.6194  144.1690  171.8289 H       1  UNL1        0.1442
     21 H         143.9064  144.7889  170.9724 H       1  UNL1        0.1442
     22 C         138.5618  139.0730  164.5737 C.3     1  UNL1        0.1719
     23 C         138.1673  139.8656  163.3628 C.2     1  UNL1        0.1995
     24 O         137.8414  139.1617  162.0790 O.2     1  UNL1       -0.2890
     25 C         138.0987  141.3623  163.4358 C.ar    1  UNL1        0.0667
     26 C         137.8222  142.2893  162.2894 C.ar    1  UNL1        0.0108
     27 C         137.8472  143.6946  162.8132 C.ar    1  UNL1        0.0186
     28 C         138.1391  143.6363  164.2833 C.ar    1  UNL1        0.0870
     29 CL        138.2552  144.8128  165.2065 Cl      1  UNL1       -0.0752
     30 S         138.2945  142.1949  164.6682 S.2     1  UNL1       -0.0726
@<TRIPOS>BOND
     1     1     2    1
     2     2    10    1
     3    10    11   ar
     4    11    12   ar
     5    12    13   ar
     6    13    16    1
     7    16    17    1
     8    16    18    2
     9    16    19    2
    10    13    14   ar
    11    14    15   ar
    12     2     3    1
    13     3     4   am
    14     4     5    2
    15     4     6   am
    16     6    22    1
    17    22    23    1
    18    23    24    2
    19    23    25    1
    20    25    26   ar
    21    26    27   ar
    22    27    28   ar
    23    28    29    1
    24    28    30   ar
    25     6     7   am
    26     7     8    2
    27     7     2    1
    28    15    10   ar
    29    30    25   ar
    30    17    20    1
    31    17    21    1
    32     3     9    1
@<TRIPOS>MOLECULE
*****
 30 32 0 0 0
SMALL
GASTEIGER

@<TRIPOS>ATOM
      1 C         139.2518  137.6226  164.9659 C.3     1  UNL1        0.0337
      2 C         138.8545  139.0180  164.5851 C.3     1  UNL1        0.1467
      3 N         138.5577  138.4007  163.2506 N.am    1  UNL1       -0.2806
      4 C         138.0563  139.4827  162.3407 C.2     1  UNL1        0.3106
      5 O         137.6410  139.3092  160.9098 O.2     1  UNL1       -0.2521
      6 N         138.0432  140.7686  163.1128 N.am    1  UNL1       -0.2049
      7 C         138.5365  140.4814  164.5000 C.2     1  UNL1        0.2527
      8 O         138.6857  141.4820  165.6075 O.2     1  UNL1       -0.2723
      9 H         138.6719  137.4520  163.0135 H       1  UNL1        0.1516
     10 C         139.2343  139.3434  165.9993 C.ar    1  UNL1        0.0021
     11 C         140.6338  139.7787  166.3187 C.ar    1  UNL1       -0.0009
     12 C         141.0136  140.1041  167.7329 C.ar    1  UNL1        0.0196
     13 C         139.9939  139.9944  168.8275 C.ar    1  UNL1        0.1217
     14 C         138.5945  139.5591  168.5081 C.ar    1  UNL1        0.0196
     15 C         138.2147  139.2337  167.0939 C.ar    1  UNL1       -0.0009
     16 S         140.3738  140.3198  170.2417 S.O2    1  UNL1        0.0572
     17 N         140.7536  140.6453  171.6558 N.3     1  UNL1       -0.2035
     18 O         141.7018  140.8311  169.7674 O.2     1  UNL1       -0.1532
     19 O         139.0458  139.8086  170.7160 O.2     1  UNL1       -0.1532
     20 H         141.6911  141.0468  171.6723 H       1  UNL1        0.1442
     21 H         140.7387  139.7933  172.2165 H       1  UNL1        0.1442
     22 C         137.6125  142.1068  162.5897 C.3     1  UNL1        0.1719
     23 C         138.5608  142.9332  161.7724 C.2     1  UNL1        0.1995
     24 O         138.3410  143.0876  160.2967 O.2     1  UNL1       -0.2890
     25 C         139.7291  143.6051  162.4310 C.ar    1  UNL1        0.0667
     26 C         139.6929  144.3753  163.7177 C.ar    1  UNL1        0.0108
     27 C         141.0801  144.8710  164.0004 C.ar    1  UNL1        0.0186
     28 C         141.9737  144.4073  162.8885 C.ar    1  UNL1        0.0870
     29 CL        143.4439  144.6783  162.7677 Cl      1  UNL1       -0.0752
     30 S         141.1387  143.6249  161.9186 S.2     1  UNL1       -0.0726
@<TRIPOS>BOND
     1     1     2    1
     2     2    10    1
     3    10    11   ar
     4    11    12   ar
     5    12    13   ar
     6    13    16    1
     7    16    17    1
     8    16    18    2
     9    16    19    2
    10    13    14   ar
    11    14    15   ar
    12     2     3    1
    13     3     4   am
    14     4     5    2
    15     4     6   am
    16     6    22    1
    17    22    23    1
    18    23    24    2
    19    23    25    1
    20    25    26   ar
    21    26    27   ar
    22    27    28   ar
    23    28    29    1
    24    28    30   ar
    25     6     7   am
    26     7     8    2
    27     7     2    1
    28    15    10   ar
    29    30    25   ar
    30    17    20    1
    31    17    21    1
    32     3     9    1
@<TRIPOS>MOLECULE
*****
 30 32 0 0 0
SMALL
GASTEIGER

@<TRIPOS>ATOM
      1 C         143.6744  141.0465  164.9457 C.3     1  UNL1        0.0337
      2 C         142.6838  142.1613  164.7855 C.3     1  UNL1        0.1467
      3 N         143.4444  142.4450  163.5242 N.am    1  UNL1       -0.2806
      4 C         142.8081  143.6271  162.8552 C.2     1  UNL1        0.3106
      5 O         143.2483  144.2526  161.5648 O.2     1  UNL1       -0.2521
      6 N         141.6542  144.0741  163.7029 N.am    1  UNL1       -0.2049
      7 C         141.5774  143.1681  164.8960 C.2     1  UNL1        0.2527
      8 O         140.5708  143.2539  166.0049 O.2     1  UNL1       -0.2723
      9 H         144.2243  141.9434  163.1935 H       1  UNL1        0.1516
     10 C         142.1303  141.6445  166.0804 C.ar    1  UNL1        0.0021
     11 C         141.0269  140.6284  166.0720 C.ar    1  UNL1       -0.0009
     12 C         140.4734  140.1116  167.3668 C.ar    1  UNL1        0.0196
     13 C         141.0234  140.6109  168.6700 C.ar    1  UNL1        0.1217
     14 C         142.1268  141.6270  168.6784 C.ar    1  UNL1        0.0196
     15 C         142.6802  142.1438  167.3835 C.ar    1  UNL1       -0.0009
     16 S         140.4699  140.0941  169.9649 S.O2    1  UNL1        0.0572
     17 N         139.9164  139.5773  171.2597 N.3     1  UNL1       -0.2035
     18 O         139.1729  139.7739  169.2827 O.2     1  UNL1       -0.1532
     19 O         141.7668  140.4143  170.6470 O.2     1  UNL1       -0.1532
     20 H         138.9595  139.2548  171.1158 H       1  UNL1        0.1442
     21 H         139.9228  140.3242  171.9543 H       1  UNL1        0.1442
     22 C         140.7380  145.2248  163.4093 C.3     1  UNL1        0.1719
     23 C         139.5514  145.0289  162.5128 C.2     1  UNL1        0.1995
     24 O         139.1315  146.1215  161.5747 O.2     1  UNL1       -0.2890
     25 C         138.7847  143.7403  162.5544 C.ar    1  UNL1        0.0667
     26 C         137.8955  143.2789  163.6708 C.ar    1  UNL1        0.0108
     27 C         137.3339  141.9403  163.2932 C.ar    1  UNL1        0.0186
     28 C         137.8760  141.5742  161.9434 C.ar    1  UNL1        0.0870
     29 CL        137.5744  140.3166  161.1836 Cl      1  UNL1       -0.0752
     30 S         138.7726  142.6866  161.4867 S.2     1  UNL1       -0.0726
@<TRIPOS>BOND
     1     1     2    1
     2     2    10    1
     3    10    11   ar
     4    11    12   ar
     5    12    13   ar
     6    13    16    1
     7    16    17    1
     8    16    18    2
     9    16    19    2
    10    13    14   ar
    11    14    15   ar
    12     2     3    1
    13     3     4   am
    14     4     5    2
    15     4     6   am
    16     6    22    1
    17    22    23    1
    18    23    24    2
    19    23    25    1
    20    25    26   ar
    21    26    27   ar
    22    27    28   ar
    23    28    29    1
    24    28    30   ar
    25     6     7   am
    26     7     8    2
    27     7     2    1
    28    15    10   ar
    29    30    25   ar
    30    17    20    1
    31    17    21    1
    32     3     9    1
@<TRIPOS>MOLECULE
*****
 30 32 0 0 0
SMALL
GASTEIGER

@<TRIPOS>ATOM
      1 C         141.8073  137.7836  164.9277 C.3     1  UNL1        0.0337
      2 C         142.2590  139.1857  164.6449 C.3     1  UNL1        0.1467
      3 N         142.5201  138.6558  163.2661 N.am    1  UNL1       -0.2806
      4 C         143.0588  139.7800  162.4318 C.2     1  UNL1        0.3106
      5 O         143.4559  139.6945  160.9879 O.2     1  UNL1       -0.2521
      6 N         143.1307  141.0046  163.2949 N.am    1  UNL1       -0.2049
      7 C         142.6364  140.6374  164.6627 C.2     1  UNL1        0.2527
      8 O         142.5369  141.5599  165.8414 O.2     1  UNL1       -0.2723
      9 H         142.3651  137.7324  162.9621 H       1  UNL1        0.1516
     10 C         141.9034  139.4225  166.0828 C.ar    1  UNL1        0.0021
     11 C         140.5078  139.8285  166.4533 C.ar    1  UNL1       -0.0009
     12 C         140.1523  140.0652  167.8912 C.ar    1  UNL1        0.0196
     13 C         141.1925  139.8960  168.9586 C.ar    1  UNL1        0.1217
     14 C         142.5882  139.4900  168.5881 C.ar    1  UNL1        0.0196
     15 C         142.9436  139.2533  167.1502 C.ar    1  UNL1       -0.0009
     16 S         140.8369  140.1327  170.3965 S.O2    1  UNL1        0.0572
     17 N         140.4814  140.3695  171.8344 N.3     1  UNL1       -0.2035
     18 O         142.2873  140.3337  170.7221 O.2     1  UNL1       -0.1532
     19 O         139.3866  139.9318  170.0710 O.2     1  UNL1       -0.1532
     20 H         141.3306  140.5520  172.3690 H       1  UNL1        0.1442
     21 H         140.0143  139.5439  172.2095 H       1  UNL1        0.1442
     22 C         143.6123  142.3588  162.8657 C.3     1  UNL1        0.1719
     23 C         142.6454  143.3513  162.2912 C.2     1  UNL1        0.1995
     24 O         142.9580  144.0397  160.9957 O.2     1  UNL1       -0.2890
     25 C         141.3657  143.6554  163.0123 C.ar    1  UNL1        0.0667
     26 C         141.1583  144.7497  164.0170 C.ar    1  UNL1        0.0108
     27 C         139.7331  144.6891  164.4809 C.ar    1  UNL1        0.0186
     28 C         139.0596  143.5574  163.7629 C.ar    1  UNL1        0.0870
     29 CL        137.6285  143.1382  163.9242 Cl      1  UNL1       -0.0752
     30 S         140.0686  142.9185  162.8553 S.2     1  UNL1       -0.0726
@<TRIPOS>BOND
     1     1     2    1
     2     2    10    1
     3    10    11   ar
     4    11    12   ar
     5    12    13   ar
     6    13    16    1
     7    16    17    1
     8    16    18    2
     9    16    19    2
    10    13    14   ar
    11    14    15   ar
    12     2     3    1
    13     3     4   am
    14     4     5    2
    15     4     6   am
    16     6    22    1
    17    22    23    1
    18    23    24    2
    19    23    25    1
    20    25    26   ar
    21    26    27   ar
    22    27    28   ar
    23    28    29    1
    24    28    30   ar
    25     6     7   am
    26     7     8    2
    27     7     2    1
    28    15    10   ar
    29    30    25   ar
    30    17    20    1
    31    17    21    1
    32     3     9    1
@<TRIPOS>MOLECULE
*****
 30 32 0 0 0
SMALL
GASTEIGER

@<TRIPOS>ATOM
      1 C         138.3240  141.1334  164.8585 C.3     1  UNL1        0.0337
      2 C         139.5624  140.2959  164.7366 C.3     1  UNL1        0.1467
      3 N         139.1003  140.0992  163.3231 N.am    1  UNL1       -0.2806
      4 C         140.0956  139.2179  162.6285 C.2     1  UNL1        0.3106
      5 O         140.0259  138.7642  161.2005 O.2     1  UNL1       -0.2521
      6 N         141.1728  138.8697  163.6125 N.am    1  UNL1       -0.2049
      7 C         140.8432  139.5360  164.9154 C.2     1  UNL1        0.2527
      8 O         141.6525  139.4564  166.1759 O.2     1  UNL1       -0.2723
      9 H         138.2866  140.4815  162.9218 H       1  UNL1        0.1516
     10 C         139.7655  140.6676  166.1756 C.ar    1  UNL1        0.0021
     11 C         140.4617  141.9486  166.5281 C.ar    1  UNL1       -0.0009
     12 C         140.6648  142.3203  167.9671 C.ar    1  UNL1        0.0196
     13 C         140.1718  141.4110  169.0534 C.ar    1  UNL1        0.1217
     14 C         139.4757  140.1300  168.7008 C.ar    1  UNL1        0.0196
     15 C         139.2725  139.7583  167.2619 C.ar    1  UNL1       -0.0009
     16 S         140.3750  141.7828  170.4924 S.O2    1  UNL1        0.0572
     17 N         140.5781  142.1546  171.9313 N.3     1  UNL1       -0.2035
     18 O         141.8606  141.6932  170.3058 O.2     1  UNL1       -0.1532
     19 O         138.8894  141.8724  170.6789 O.2     1  UNL1       -0.1532
     20 H         141.5766  142.1814  172.1378 H       1  UNL1        0.1442
     21 H         140.1258  141.4622  172.5284 H       1  UNL1        0.1442
     22 C         142.3694  138.0069  163.3414 C.3     1  UNL1        0.1719
     23 C         143.4837  138.5199  162.4781 C.2     1  UNL1        0.1995
     24 O         144.0653  137.6462  161.4064 O.2     1  UNL1       -0.2890
     25 C         144.0164  139.9065  162.6865 C.ar    1  UNL1        0.0667
     26 C         144.3600  140.8905  161.6078 C.ar    1  UNL1        0.0108
     27 C         144.8550  142.1448  162.2649 C.ar    1  UNL1        0.0186
     28 C         144.8173  141.9360  163.7498 C.ar    1  UNL1        0.0870
     29 CL        145.2261  142.9351  164.7912 Cl      1  UNL1       -0.0752
     30 S         144.2991  140.5527  164.0104 S.2     1  UNL1       -0.0726
@<TRIPOS>BOND
     1     1     2    1
     2     2    10    1
     3    10    11   ar
     4    11    12   ar
     5    12    13   ar
     6    13    16    1
     7    16    17    1
     8    16    18    2
     9    16    19    2
    10    13    14   ar
    11    14    15   ar
    12     2     3    1
    13     3     4   am
    14     4     5    2
    15     4     6   am
    16     6    22    1
    17    22    23    1
    18    23    24    2
    19    23    25    1
    20    25    26   ar
    21    26    27   ar
    22    27    28   ar
    23    28    29    1
    24    28    30   ar
    25     6     7   am
    26     7     8    2
    27     7     2    1
    28    15    10   ar
    29    30    25   ar
    30    17    20    1
    31    17    21    1
    32     3     9    1
@<TRIPOS>MOLECULE
*****
 30 32 0 0 0
SMALL
GASTEIGER

@<TRIPOS>ATOM
      1 C         143.4148  140.6480  165.4502 C.3     1  UNL1        0.0337
      2 C         141.9953  140.3788  165.0470 C.3     1  UNL1        0.1467
      3 N         142.5983  140.0814  163.7061 N.am    1  UNL1       -0.2806
      4 C         141.4875  139.7023  162.7722 C.2     1  UNL1        0.3106
      5 O         141.6394  139.3261  161.3281 O.2     1  UNL1       -0.2521
      6 N         140.1980  139.7654  163.5358 N.am    1  UNL1       -0.2049
      7 C         140.5118  140.1835  164.9418 C.2     1  UNL1        0.2527
      8 O         139.5169  140.3731  166.0482 O.2     1  UNL1       -0.2723
      9 H         143.5551  140.1270  163.4789 H       1  UNL1        0.1516
     10 C         141.6891  140.7325  166.4722 C.ar    1  UNL1        0.0021
     11 C         141.3153  142.1399  166.8320 C.ar    1  UNL1       -0.0009
     12 C         141.0091  142.4936  168.2571 C.ar    1  UNL1        0.0196
     13 C         141.0768  141.4399  169.3226 C.ar    1  UNL1        0.1217
     14 C         141.4507  140.0325  168.9628 C.ar    1  UNL1        0.0196
     15 C         141.7569  139.6788  167.5376 C.ar    1  UNL1       -0.0009
     16 S         140.7706  141.7936  170.7478 S.O2    1  UNL1        0.0572
     17 N         140.4644  142.1473  172.1729 N.3     1  UNL1       -0.2035
     18 O         141.8290  142.8559  170.7116 O.2     1  UNL1       -0.1532
     19 O         139.7123  140.7313  170.7840 O.2     1  UNL1       -0.1532
     20 H         141.0735  142.9085  172.4727 H       1  UNL1        0.1442
     21 H         140.6209  141.3327  172.7666 H       1  UNL1        0.1442
     22 C         138.8340  139.4634  162.9894 C.3     1  UNL1        0.1719
     23 C         138.0912  140.5067  162.2084 C.2     1  UNL1        0.1995
     24 O         137.2746  140.1098  161.0144 O.2     1  UNL1       -0.2890
     25 C         138.1649  141.9468  162.6215 C.ar    1  UNL1        0.0667
     26 C         137.5573  142.5419  163.8571 C.ar    1  UNL1        0.0108
     27 C         137.8761  144.0075  163.8708 C.ar    1  UNL1        0.0186
     28 C         138.6807  144.3183  162.6436 C.ar    1  UNL1        0.0870
     29 CL        139.2133  145.6660  162.2565 Cl      1  UNL1       -0.0752
     30 S         138.8592  143.0448  161.8716 S.2     1  UNL1       -0.0726
@<TRIPOS>BOND
     1     1     2    1
     2     2    10    1
     3    10    11   ar
     4    11    12   ar
     5    12    13   ar
     6    13    16    1
     7    16    17    1
     8    16    18    2
     9    16    19    2
    10    13    14   ar
    11    14    15   ar
    12     2     3    1
    13     3     4   am
    14     4     5    2
    15     4     6   am
    16     6    22    1
    17    22    23    1
    18    23    24    2
    19    23    25    1
    20    25    26   ar
    21    26    27   ar
    22    27    28   ar
    23    28    29    1
    24    28    30   ar
    25     6     7   am
    26     7     8    2
    27     7     2    1
    28    15    10   ar
    29    30    25   ar
    30    17    20    1
    31    17    21    1
    32     3     9    1
@<TRIPOS>MOLECULE
*****
 30 32 0 0 0
SMALL
GASTEIGER

@<TRIPOS>ATOM
      1 C         138.9156  139.3313  167.3766 C.3     1  UNL1        0.0337
      2 C         139.8658  139.5762  166.2421 C.3     1  UNL1        0.1467
      3 N         138.9504  138.6605  165.4850 N.am    1  UNL1       -0.2806
      4 C         139.4846  138.5203  164.0904 C.2     1  UNL1        0.3106
      5 O         138.8795  137.6957  162.9932 O.2     1  UNL1       -0.2521
      6 N         140.7303  139.3492  163.9856 N.am    1  UNL1       -0.2049
      7 C         140.9659  140.0019  165.3155 C.2     1  UNL1        0.2527
      8 O         142.1022  140.9192  165.6586 O.2     1  UNL1       -0.2723
      9 H         138.1409  138.2275  165.8408 H       1  UNL1        0.1516
     10 C         140.5827  140.4407  167.2366 C.ar    1  UNL1        0.0021
     11 C         141.6765  139.8609  168.0834 C.ar    1  UNL1       -0.0009
     12 C         142.3933  140.7254  169.0778 C.ar    1  UNL1        0.0196
     13 C         142.0162  142.1698  169.2253 C.ar    1  UNL1        0.1217
     14 C         140.9224  142.7496  168.3784 C.ar    1  UNL1        0.0196
     15 C         140.2056  141.8850  167.3840 C.ar    1  UNL1       -0.0009
     16 S         142.7331  143.0343  170.2197 S.O2    1  UNL1        0.0572
     17 N         143.4498  143.8988  171.2141 N.3     1  UNL1       -0.2035
     18 O         144.0242  142.3474  169.8863 O.2     1  UNL1       -0.1532
     19 O         141.4420  143.7212  170.5532 O.2     1  UNL1       -0.1532
     20 H         144.4400  143.6544  171.2257 H       1  UNL1        0.1442
     21 H         143.0523  143.7512  172.1418 H       1  UNL1        0.1442
     22 C         141.5895  139.4993  162.7653 C.3     1  UNL1        0.1719
     23 C         141.2633  140.5471  161.7427 C.2     1  UNL1        0.1995
     24 O         140.6055  140.1568  160.4524 O.2     1  UNL1       -0.2890
     25 C         141.5950  141.9852  162.0104 C.ar    1  UNL1        0.0667
     26 C         140.6702  143.1521  161.8282 C.ar    1  UNL1        0.0108
     27 C         141.4134  144.3971  162.2125 C.ar    1  UNL1        0.0186
     28 C         142.7975  143.9997  162.6323 C.ar    1  UNL1        0.0870
     29 CL        143.8794  144.9296  163.0956 Cl      1  UNL1       -0.0752
     30 S         142.9098  142.5092  162.5074 S.2     1  UNL1       -0.0726
@<TRIPOS>BOND
     1     1     2    1
     2     2    10    1
     3    10    11   ar
     4    11    12   ar
     5    12    13   ar
     6    13    16    1
     7    16    17    1
     8    16    18    2
     9    16    19    2
    10    13    14   ar
    11    14    15   ar
    12     2     3    1
    13     3     4   am
    14     4     5    2
    15     4     6   am
    16     6    22    1
    17    22    23    1
    18    23    24    2
    19    23    25    1
    20    25    26   ar
    21    26    27   ar
    22    27    28   ar
    23    28    29    1
    24    28    30   ar
    25     6     7   am
    26     7     8    2
    27     7     2    1
    28    15    10   ar
    29    30    25   ar
    30    17    20    1
    31    17    21    1
    32     3     9    1
@<TRIPOS>MOLECULE
*****
 30 32 0 0 0
SMALL
GASTEIGER

@<TRIPOS>ATOM
      1 C         144.4446  140.7426  164.4959 C.3     1  UNL1        0.0337
      2 C         142.9770  140.6004  164.2201 C.3     1  UNL1        0.1467
      3 N         143.4050  140.6260  162.7827 N.am    1  UNL1       -0.2806
      4 C         142.1766  140.5004  161.9311 C.2     1  UNL1        0.3106
      5 O         142.1415  140.4814  160.4316 O.2     1  UNL1       -0.2521
      6 N         140.9895  140.3973  162.8421 N.am    1  UNL1       -0.2049
      7 C         141.4842  140.4591  164.2568 C.2     1  UNL1        0.2527
      8 O         140.6350  140.3915  165.4916 O.2     1  UNL1       -0.2723
      9 H         144.3297  140.7103  162.4556 H       1  UNL1        0.1516
     10 C         142.8559  140.6046  165.7152 C.ar    1  UNL1        0.0021
     11 C         142.7250  141.9038  166.4534 C.ar    1  UNL1       -0.0009
     12 C         142.6039  141.9079  167.9485 C.ar    1  UNL1        0.0196
     13 C         142.6137  140.6129  168.7054 C.ar    1  UNL1        0.1217
     14 C         142.7446  139.3138  167.9672 C.ar    1  UNL1        0.0196
     15 C         142.8657  139.3096  166.4721 C.ar    1  UNL1       -0.0009
     16 S         142.4926  140.6171  170.2005 S.O2    1  UNL1        0.0572
     17 N         142.3715  140.6214  171.6956 N.3     1  UNL1       -0.2035
     18 O         141.5147  139.4823  170.1245 O.2     1  UNL1       -0.1532
     19 O         143.4705  141.7520  170.2765 O.2     1  UNL1       -0.1532
     20 H         141.7171  139.8947  171.9858 H       1  UNL1        0.1442
     21 H         142.0296  141.5307  172.0064 H       1  UNL1        0.1442
     22 C         139.5588  140.2570  162.4137 C.3     1  UNL1        0.1719
     23 C         138.7961  141.4592  161.9412 C.2     1  UNL1        0.1995
     24 O         137.9277  141.3649  160.7218 O.2     1  UNL1       -0.2890
     25 C         138.9019  142.7556  162.6881 C.ar    1  UNL1        0.0667
     26 C         139.4806  144.0340  162.1581 C.ar    1  UNL1        0.0108
     27 C         139.3839  145.0698  163.2387 C.ar    1  UNL1        0.0186
     28 C         138.7455  144.4317  164.4367 C.ar    1  UNL1        0.0870
     29 CL        138.4558  145.1054  165.7451 Cl      1  UNL1       -0.0752
     30 S         138.4476  143.0015  164.0965 S.2     1  UNL1       -0.0726
@<TRIPOS>BOND
     1     1     2    1
     2     2    10    1
     3    10    11   ar
     4    11    12   ar
     5    12    13   ar
     6    13    16    1
     7    16    17    1
     8    16    18    2
     9    16    19    2
    10    13    14   ar
    11    14    15   ar
    12     2     3    1
    13     3     4   am
    14     4     5    2
    15     4     6   am
    16     6    22    1
    17    22    23    1
    18    23    24    2
    19    23    25    1
    20    25    26   ar
    21    26    27   ar
    22    27    28   ar
    23    28    29    1
    24    28    30   ar
    25     6     7   am
    26     7     8    2
    27     7     2    1
    28    15    10   ar
    29    30    25   ar
    30    17    20    1
    31    17    21    1
    32     3     9    1
