@<TRIPOS>MOLECULE
*****
 41 46 0 0 0
SMALL
GASTEIGER

@<TRIPOS>ATOM
      1 C         142.0534  138.0395  163.9578 C.3     1  UNL1        0.0932
      2 C         143.0462  138.4291  165.0126 C.3     1  UNL1        0.0286
      3 C         144.2111  139.3054  164.6592 C.3     1  UNL1        0.0193
      4 C         144.3832  139.7923  163.2509 C.3     1  UNL1        0.0700
      5 C         143.3904  139.4028  162.1960 C.3     1  UNL1        0.0193
      6 C         142.2255  138.5264  162.5495 C.3     1  UNL1        0.0286
      7 C         143.7291  139.3141  163.3967 C.3     1  UNL1        0.1562
      8 O         142.6757  138.5216  163.7163 O.3     1  UNL1       -0.3572
      9 N         145.5481  140.6687  162.8974 N.3     1  UNL1       -0.2926
     10 H         145.6033  140.6887  161.8791 H       1  UNL1        0.1236
     11 C         145.5816  142.0949  163.3609 C.3     1  UNL1        0.1152
     12 C         144.3772  142.9706  163.1803 C.ar    1  UNL1        0.0765
     13 C         143.7106  143.5850  164.3754 C.ar    1  UNL1        0.0193
     14 C         142.5063  144.4607  164.1948 C.ar    1  UNL1        0.0411
     15 C         141.9685  144.7221  162.8191 C.ar    1  UNL1        0.1708
     16 C         142.6351  144.1077  161.6240 C.ar    1  UNL1        0.1682
     17 N         143.8395  143.2320  161.8046 N.ar    1  UNL1       -0.2304
     18 N         142.0974  144.3691  160.2483 N.am    1  UNL1       -0.2639
     19 C         140.8930  145.2449  160.0677 C.2     1  UNL1        0.2718
     20 O         140.3553  145.5063  158.6921 O.2     1  UNL1       -0.2707
     21 C         140.2264  145.8592  161.2628 C.3     1  UNL1        0.2898
     22 O         140.7642  145.5979  162.6385 O.3     1  UNL1       -0.4628
     23 H         142.5349  143.9659  159.4640 H       1  UNL1        0.1565
     24 C         140.8885  137.1631  164.3113 C.3     1  UNL1        0.0320
     25 C         139.6684  137.7585  164.9490 C.3     1  UNL1        0.0327
     26 C         139.1268  144.2579  165.4124 C.3     1  UNL1        0.0327
     27 C         139.5824  142.8832  165.8033 C.ar    1  UNL1        0.0001
     28 C         140.4505  142.6963  167.0121 C.ar    1  UNL1        0.0352
     29 C         140.9061  141.3216  167.4030 C.ar    1  UNL1        0.1860
     30 N         140.4935  140.1339  166.5850 N.ar    1  UNL1       -0.2260
     31 C         139.6254  140.3209  165.3762 C.ar    1  UNL1        0.0982
     32 C         139.2128  139.1331  164.5582 C.ar    1  UNL1        0.0260
     33 C         138.3446  139.3201  163.3493 C.ar    1  UNL1        0.1566
     34 F         137.9320  138.1323  162.5313 F       1  UNL1       -0.2028
     35 C         137.8890  140.6947  162.9584 C.ar    1  UNL1        0.1281
     36 N         138.3016  141.8824  163.7764 N.ar    1  UNL1       -0.2403
     37 C         139.1698  141.6955  164.9853 C.ar    1  UNL1        0.0949
     38 S         141.7743  141.1347  168.6119 S.O2    1  UNL1        0.0268
     39 C         142.6424  140.9478  169.8207 C.3     1  UNL1        0.1834
     40 O         142.4715  142.4283  168.3113 O.2     1  UNL1       -0.1671
     41 O         141.0771  139.8411  168.9125 O.2     1  UNL1       -0.1671
@<TRIPOS>BOND
     1    26    27    1
     2    27    28   ar
     3    28    29   ar
     4    29    38    1
     5    38    39    1
     6    38    40    2
     7    38    41    2
     8    29    30   ar
     9    30    31   ar
    10    31    32   ar
    11    32    25    1
    12    25    24    1
    13    24     1    1
    14     1     2    1
    15     2     3    1
    16     3     4    1
    17     4     9    1
    18     9    11    1
    19    11    12    1
    20    12    13   ar
    21    13    14   ar
    22    14    15   ar
    23    15    16   ar
    24    16    17   ar
    25    16    18    1
    26    18    19   am
    27    19    20    2
    28    19    21    1
    29    21    22    1
    30     4     5    1
    31     5     6    1
    32     4     7    1
    33     7     8    1
    34    32    33   ar
    35    33    34    1
    36    33    35   ar
    37    35    36   ar
    38    36    37   ar
    39    37    27   ar
    40    37    31   ar
    41     6     1    1
    42     8     1    1
    43    17    12   ar
    44    22    15    1
    45     9    10    1
    46    18    23    1
@<TRIPOS>MOLECULE
*****
 41 46 0 0 0
SMALL
GASTEIGER

@<TRIPOS>ATOM
      1 C         137.8631  142.7303  163.7852 C.3     1  UNL1        0.0932
      2 C         138.0269  141.5248  164.6626 C.3     1  UNL1        0.0286
      3 C         138.0585  140.1537  164.0551 C.3     1  UNL1        0.0193
      4 C         137.9264  139.9881  162.5702 C.3     1  UNL1        0.0700
      5 C         137.7627  141.1936  161.6927 C.3     1  UNL1        0.0193
      6 C         137.7311  142.5647  162.3002 C.3     1  UNL1        0.0286
      7 C         137.9033  140.7595  162.8571 C.3     1  UNL1        0.1562
      8 O         137.8747  141.9994  163.4065 O.3     1  UNL1       -0.3572
      9 N         137.9581  138.6170  161.9627 N.3     1  UNL1       -0.2926
     10 H         137.2004  138.5795  161.2808 H       1  UNL1        0.1236
     11 C         139.1943  138.1349  161.2634 C.3     1  UNL1        0.1152
     12 C         140.5443  138.3900  161.8654 C.ar    1  UNL1        0.0765
     13 C         141.6509  138.9440  161.0178 C.ar    1  UNL1        0.0193
     14 C         143.0009  139.1991  161.6198 C.ar    1  UNL1        0.0411
     15 C         143.2444  138.9001  163.0694 C.ar    1  UNL1        0.1708
     16 C         142.1377  138.3460  163.9170 C.ar    1  UNL1        0.1682
     17 N         140.7877  138.0909  163.3150 N.ar    1  UNL1       -0.2304
     18 N         142.3811  138.0470  165.3666 N.am    1  UNL1       -0.2639
     19 C         143.7312  138.3020  165.9686 C.2     1  UNL1        0.2718
     20 O         143.9746  138.0030  167.4182 O.2     1  UNL1       -0.2707
     21 C         144.8377  138.8561  165.1211 C.3     1  UNL1        0.2898
     22 O         144.5944  139.1552  163.6714 O.3     1  UNL1       -0.4628
     23 H         141.6549  137.6833  165.9229 H       1  UNL1        0.1565
     24 C         137.8315  144.1014  164.3927 C.3     1  UNL1        0.0320
     25 C         139.1138  144.8273  164.6730 C.3     1  UNL1        0.0327
     26 C         144.9907  142.6119  162.8551 C.3     1  UNL1        0.0327
     27 C         143.8098  142.7984  163.7610 C.ar    1  UNL1        0.0001
     28 C         143.7959  142.1569  165.1168 C.ar    1  UNL1        0.0352
     29 C         142.6150  142.3435  166.0228 C.ar    1  UNL1        0.1860
     30 N         141.4480  143.1714  165.5729 N.ar    1  UNL1       -0.2260
     31 C         141.4618  143.8128  164.2170 C.ar    1  UNL1        0.0982
     32 C         140.2947  144.6408  163.7671 C.ar    1  UNL1        0.0260
     33 C         140.3086  145.2823  162.4112 C.ar    1  UNL1        0.1566
     34 F         139.1415  146.1103  161.9613 F       1  UNL1       -0.2028
     35 C         141.4895  145.0957  161.5053 C.ar    1  UNL1        0.1281
     36 N         142.6565  144.2678  161.9552 N.ar    1  UNL1       -0.2403
     37 C         142.6427  143.6263  163.3111 C.ar    1  UNL1        0.0949
     38 S         142.6012  141.7020  167.3787 S.O2    1  UNL1        0.0268
     39 C         142.5874  141.0605  168.7345 C.3     1  UNL1        0.1834
     40 O         143.6446  142.6719  167.8482 O.2     1  UNL1       -0.1671
     41 O         141.5579  140.7320  166.9091 O.2     1  UNL1       -0.1671
@<TRIPOS>BOND
     1    26    27    1
     2    27    28   ar
     3    28    29   ar
     4    29    38    1
     5    38    39    1
     6    38    40    2
     7    38    41    2
     8    29    30   ar
     9    30    31   ar
    10    31    32   ar
    11    32    25    1
    12    25    24    1
    13    24     1    1
    14     1     2    1
    15     2     3    1
    16     3     4    1
    17     4     9    1
    18     9    11    1
    19    11    12    1
    20    12    13   ar
    21    13    14   ar
    22    14    15   ar
    23    15    16   ar
    24    16    17   ar
    25    16    18    1
    26    18    19   am
    27    19    20    2
    28    19    21    1
    29    21    22    1
    30     4     5    1
    31     5     6    1
    32     4     7    1
    33     7     8    1
    34    32    33   ar
    35    33    34    1
    36    33    35   ar
    37    35    36   ar
    38    36    37   ar
    39    37    27   ar
    40    37    31   ar
    41     6     1    1
    42     8     1    1
    43    17    12   ar
    44    22    15    1
    45     9    10    1
    46    18    23    1
@<TRIPOS>MOLECULE
*****
 41 46 0 0 0
SMALL
GASTEIGER

@<TRIPOS>ATOM
      1 C         142.1331  137.9531  163.3738 C.3     1  UNL1        0.0932
      2 C         142.9838  138.2913  162.1856 C.3     1  UNL1        0.0286
      3 C         144.1649  139.2023  162.3437 C.3     1  UNL1        0.0193
      4 C         144.4953  139.7752  163.6900 C.3     1  UNL1        0.0700
      5 C         143.6446  139.4370  164.8783 C.3     1  UNL1        0.0193
      6 C         142.4635  138.5259  164.7202 C.3     1  UNL1        0.0286
      7 C         143.8381  139.2806  163.6527 C.3     1  UNL1        0.1562
      8 O         142.7700  138.4568  163.5097 O.3     1  UNL1       -0.3572
      9 N         145.6764  140.6862  163.8481 N.3     1  UNL1       -0.2926
     10 H         146.4998  140.1515  163.5714 H       1  UNL1        0.1236
     11 C         145.7293  141.9830  163.0962 C.3     1  UNL1        0.1152
     12 C         144.5122  142.8564  163.0207 C.ar    1  UNL1        0.0765
     13 C         143.8951  143.3931  164.2782 C.ar    1  UNL1        0.0193
     14 C         142.6780  144.2666  164.2028 C.ar    1  UNL1        0.0411
     15 C         142.0779  144.6033  162.8699 C.ar    1  UNL1        0.1708
     16 C         142.6950  144.0666  161.6124 C.ar    1  UNL1        0.1682
     17 N         143.9121  143.1932  161.6878 N.ar    1  UNL1       -0.2304
     18 N         142.0949  144.4034  160.2796 N.am    1  UNL1       -0.2639
     19 C         140.8778  145.2768  160.2042 C.2     1  UNL1        0.2718
     20 O         140.2777  145.6136  158.8714 O.2     1  UNL1       -0.2707
     21 C         140.2607  145.8135  161.4616 C.3     1  UNL1        0.2898
     22 O         140.8608  145.4768  162.7945 O.3     1  UNL1       -0.4628
     23 H         142.4999  144.0511  159.4543 H       1  UNL1        0.1565
     24 C         140.9520  137.0420  163.2157 C.3     1  UNL1        0.0320
     25 C         139.6193  137.6039  162.8178 C.3     1  UNL1        0.0327
     26 C         137.7273  143.8306  163.4491 C.3     1  UNL1        0.0327
     27 C         138.2714  142.6217  162.7473 C.ar    1  UNL1        0.0001
     28 C         138.6854  142.7127  161.3085 C.ar    1  UNL1        0.0352
     29 C         139.2295  141.5038  160.6067 C.ar    1  UNL1        0.1860
     30 N         139.3594  140.2038  161.3437 N.ar    1  UNL1       -0.2260
     31 C         138.9454  140.1128  162.7825 C.ar    1  UNL1        0.0982
     32 C         139.0753  138.8128  163.5196 C.ar    1  UNL1        0.0260
     33 C         138.6612  138.7218  164.9584 C.ar    1  UNL1        0.1566
     34 F         138.7911  137.4218  165.6954 F       1  UNL1       -0.2028
     35 C         138.1171  139.9307  165.6602 C.ar    1  UNL1        0.1281
     36 N         137.9872  141.2307  164.9232 N.ar    1  UNL1       -0.2403
     37 C         138.4013  141.3217  163.4843 C.ar    1  UNL1        0.0949
     38 S         139.6436  141.5949  159.1678 S.O2    1  UNL1        0.0268
     39 C         140.0576  141.6859  157.7290 C.3     1  UNL1        0.1834
     40 O         141.0851  141.5921  159.5824 O.2     1  UNL1       -0.1671
     41 O         138.2021  141.5976  158.7532 O.2     1  UNL1       -0.1671
@<TRIPOS>BOND
     1    26    27    1
     2    27    28   ar
     3    28    29   ar
     4    29    38    1
     5    38    39    1
     6    38    40    2
     7    38    41    2
     8    29    30   ar
     9    30    31   ar
    10    31    32   ar
    11    32    25    1
    12    25    24    1
    13    24     1    1
    14     1     2    1
    15     2     3    1
    16     3     4    1
    17     4     9    1
    18     9    11    1
    19    11    12    1
    20    12    13   ar
    21    13    14   ar
    22    14    15   ar
    23    15    16   ar
    24    16    17   ar
    25    16    18    1
    26    18    19   am
    27    19    20    2
    28    19    21    1
    29    21    22    1
    30     4     5    1
    31     5     6    1
    32     4     7    1
    33     7     8    1
    34    32    33   ar
    35    33    34    1
    36    33    35   ar
    37    35    36   ar
    38    36    37   ar
    39    37    27   ar
    40    37    31   ar
    41     6     1    1
    42     8     1    1
    43    17    12   ar
    44    22    15    1
    45     9    10    1
    46    18    23    1
@<TRIPOS>MOLECULE
*****
 41 46 0 0 0
SMALL
GASTEIGER

@<TRIPOS>ATOM
      1 C         144.4923  142.7764  163.3397 C.3     1  UNL1        0.0932
      2 C         143.9399  143.0167  161.9660 C.3     1  UNL1        0.0286
      3 C         142.8617  144.0389  161.7595 C.3     1  UNL1        0.0193
      4 C         142.3360  144.8208  162.9266 C.3     1  UNL1        0.0700
      5 C         142.8884  144.5805  164.3004 C.3     1  UNL1        0.0193
      6 C         143.9665  143.5582  164.5069 C.3     1  UNL1        0.0286
      7 C         142.9272  144.2713  163.0891 C.3     1  UNL1        0.1562
      8 O         143.9021  143.3469  163.2759 O.3     1  UNL1       -0.3572
      9 N         141.2578  145.8430  162.7201 N.3     1  UNL1       -0.2926
     10 H         141.2660  146.0834  161.7288 H       1  UNL1        0.1236
     11 C         139.8373  145.5170  163.0748 C.3     1  UNL1        0.1152
     12 C         139.2859  144.1526  162.7844 C.ar    1  UNL1        0.0765
     13 C         138.8824  143.2509  163.9132 C.ar    1  UNL1        0.0193
     14 C         138.3311  141.8864  163.6228 C.ar    1  UNL1        0.0411
     15 C         138.1832  141.4237  162.2036 C.ar    1  UNL1        0.1708
     16 C         138.5867  142.3254  161.0748 C.ar    1  UNL1        0.1682
     17 N         139.1381  143.6899  161.3652 N.ar    1  UNL1       -0.2304
     18 N         138.4388  141.8627  159.6557 N.am    1  UNL1       -0.2639
     19 C         137.8874  140.4983  159.3653 C.2     1  UNL1        0.2718
     20 O         137.7396  140.0355  157.9462 O.2     1  UNL1       -0.2707
     21 C         137.4839  139.5966  160.4940 C.3     1  UNL1        0.2898
     22 O         137.6318  140.0593  161.9133 O.3     1  UNL1       -0.4628
     23 H         138.7037  142.4545  158.9148 H       1  UNL1        0.1565
     24 C         145.5705  141.7542  163.5462 C.3     1  UNL1        0.0320
     25 C         145.2094  140.3519  163.9374 C.3     1  UNL1        0.0327
     26 C         139.0333  138.7698  165.3874 C.3     1  UNL1        0.0327
     27 C         140.4180  139.2868  165.6428 C.ar    1  UNL1        0.0001
     28 C         140.7918  139.7882  167.0061 C.ar    1  UNL1        0.0352
     29 C         142.1766  140.3052  167.2615 C.ar    1  UNL1        0.1860
     30 N         143.1875  140.3208  166.1535 N.ar    1  UNL1       -0.2260
     31 C         142.8137  139.8193  164.7901 C.ar    1  UNL1        0.0982
     32 C         143.8247  139.8349  163.6821 C.ar    1  UNL1        0.0260
     33 C         143.4509  139.3335  162.3187 C.ar    1  UNL1        0.1566
     34 F         144.4618  139.3490  161.2106 F       1  UNL1       -0.2028
     35 C         142.0661  138.8165  162.0633 C.ar    1  UNL1        0.1281
     36 N         141.0552  138.8009  163.1713 N.ar    1  UNL1       -0.2403
     37 C         141.4290  139.3024  164.5348 C.ar    1  UNL1        0.0949
     38 S         142.5504  140.8066  168.6250 S.O2    1  UNL1        0.0268
     39 C         142.9241  141.3080  169.9883 C.3     1  UNL1        0.1834
     40 O         142.1240  142.1903  168.2330 O.2     1  UNL1       -0.1671
     41 O         142.9768  139.4230  169.0169 O.2     1  UNL1       -0.1671
@<TRIPOS>BOND
     1    26    27    1
     2    27    28   ar
     3    28    29   ar
     4    29    38    1
     5    38    39    1
     6    38    40    2
     7    38    41    2
     8    29    30   ar
     9    30    31   ar
    10    31    32   ar
    11    32    25    1
    12    25    24    1
    13    24     1    1
    14     1     2    1
    15     2     3    1
    16     3     4    1
    17     4     9    1
    18     9    11    1
    19    11    12    1
    20    12    13   ar
    21    13    14   ar
    22    14    15   ar
    23    15    16   ar
    24    16    17   ar
    25    16    18    1
    26    18    19   am
    27    19    20    2
    28    19    21    1
    29    21    22    1
    30     4     5    1
    31     5     6    1
    32     4     7    1
    33     7     8    1
    34    32    33   ar
    35    33    34    1
    36    33    35   ar
    37    35    36   ar
    38    36    37   ar
    39    37    27   ar
    40    37    31   ar
    41     6     1    1
    42     8     1    1
    43    17    12   ar
    44    22    15    1
    45     9    10    1
    46    18    23    1
@<TRIPOS>MOLECULE
*****
 41 46 0 0 0
SMALL
GASTEIGER

@<TRIPOS>ATOM
      1 C         144.3346  139.7527  163.6787 C.3     1  UNL1        0.0932
      2 C         143.4338  139.3433  164.8061 C.3     1  UNL1        0.0286
      3 C         142.2527  138.4582  164.5388 C.3     1  UNL1        0.0193
      4 C         141.9723  137.9825  163.1442 C.3     1  UNL1        0.0700
      5 C         142.8730  138.3919  162.0167 C.3     1  UNL1        0.0193
      6 C         144.0542  139.2770  162.2840 C.3     1  UNL1        0.0286
      7 C         142.6314  138.4661  163.2416 C.3     1  UNL1        0.1562
      8 O         143.6995  139.2665  163.4833 O.3     1  UNL1       -0.3572
      9 N         140.7911  137.0973  162.8769 N.3     1  UNL1       -0.2926
     10 H         140.9366  136.2422  163.4135 H       1  UNL1        0.1236
     11 C         139.4064  137.5780  163.1953 C.3     1  UNL1        0.1152
     12 C         139.0086  138.9875  162.8710 C.ar    1  UNL1        0.0765
     13 C         138.4978  139.3265  161.5021 C.ar    1  UNL1        0.0193
     14 C         138.1000  140.7360  161.1778 C.ar    1  UNL1        0.0411
     15 C         138.2132  141.8064  162.2224 C.ar    1  UNL1        0.1708
     16 C         138.7241  141.4674  163.5914 C.ar    1  UNL1        0.1682
     17 N         139.1218  140.0580  163.9157 N.ar    1  UNL1       -0.2304
     18 N         138.8372  142.5379  164.6361 N.am    1  UNL1       -0.2639
     19 C         138.4395  143.9474  164.3118 C.2     1  UNL1        0.2718
     20 O         138.5526  145.0178  165.3564 O.2     1  UNL1       -0.2707
     21 C         137.9286  144.2864  162.9428 C.3     1  UNL1        0.2898
     22 O         137.8154  143.2159  161.8981 O.3     1  UNL1       -0.4628
     23 H         139.1725  142.3154  165.5346 H       1  UNL1        0.1565
     24 C         145.5157  140.6379  163.9460 C.3     1  UNL1        0.0320
     25 C         145.5598  142.0232  163.3726 C.3     1  UNL1        0.0327
     26 C         140.6351  144.8300  160.1138 C.3     1  UNL1        0.0327
     27 C         141.9039  144.0484  160.2850 C.ar    1  UNL1        0.0001
     28 C         142.6135  143.4979  159.0837 C.ar    1  UNL1        0.0352
     29 C         143.8823  142.7163  159.2548 C.ar    1  UNL1        0.1860
     30 N         144.4414  142.4852  160.6274 N.ar    1  UNL1       -0.2260
     31 C         143.7318  143.0358  161.8287 C.ar    1  UNL1        0.0982
     32 C         144.2910  142.8048  163.2014 C.ar    1  UNL1        0.0260
     33 C         143.5814  143.3553  164.4027 C.ar    1  UNL1        0.1566
     34 F         144.1405  143.1243  165.7753 F       1  UNL1       -0.2028
     35 C         142.3126  144.1369  164.2315 C.ar    1  UNL1        0.1281
     36 N         141.7534  144.3679  162.8590 N.ar    1  UNL1       -0.2403
     37 C         142.4630  143.8174  161.6575 C.ar    1  UNL1        0.0949
     38 S         144.5919  142.1657  158.0534 S.O2    1  UNL1        0.0268
     39 C         145.3015  141.6152  156.8520 C.3     1  UNL1        0.1834
     40 O         143.3307  141.4763  157.6243 O.2     1  UNL1       -0.1671
     41 O         145.8531  142.8551  158.4825 O.2     1  UNL1       -0.1671
@<TRIPOS>BOND
     1    26    27    1
     2    27    28   ar
     3    28    29   ar
     4    29    38    1
     5    38    39    1
     6    38    40    2
     7    38    41    2
     8    29    30   ar
     9    30    31   ar
    10    31    32   ar
    11    32    25    1
    12    25    24    1
    13    24     1    1
    14     1     2    1
    15     2     3    1
    16     3     4    1
    17     4     9    1
    18     9    11    1
    19    11    12    1
    20    12    13   ar
    21    13    14   ar
    22    14    15   ar
    23    15    16   ar
    24    16    17   ar
    25    16    18    1
    26    18    19   am
    27    19    20    2
    28    19    21    1
    29    21    22    1
    30     4     5    1
    31     5     6    1
    32     4     7    1
    33     7     8    1
    34    32    33   ar
    35    33    34    1
    36    33    35   ar
    37    35    36   ar
    38    36    37   ar
    39    37    27   ar
    40    37    31   ar
    41     6     1    1
    42     8     1    1
    43    17    12   ar
    44    22    15    1
    45     9    10    1
    46    18    23    1
@<TRIPOS>MOLECULE
*****
 41 46 0 0 0
SMALL
GASTEIGER

@<TRIPOS>ATOM
      1 C         138.2846  140.1823  164.2968 C.3     1  UNL1        0.0932
      2 C         138.3328  141.4146  165.1506 C.3     1  UNL1        0.0286
      3 C         138.1305  142.7652  164.5303 C.3     1  UNL1        0.0193
      4 C         137.8798  142.8836  163.0562 C.3     1  UNL1        0.0700
      5 C         137.8315  141.6512  162.2023 C.3     1  UNL1        0.0193
      6 C         138.0339  140.3006  162.8226 C.3     1  UNL1        0.0286
      7 C         137.9849  142.1219  163.3508 C.3     1  UNL1        0.1562
      8 O         138.1679  140.9006  163.9117 O.3     1  UNL1       -0.3572
      9 N         137.6774  144.2342  162.4359 N.3     1  UNL1       -0.2926
     10 H         136.8943  144.6683  162.9245 H       1  UNL1        0.1236
     11 C         138.7953  145.2343  162.4352 C.3     1  UNL1        0.1152
     12 C         140.2032  144.7853  162.1779 C.ar    1  UNL1        0.0765
     13 C         141.2808  145.0862  163.1770 C.ar    1  UNL1        0.0193
     14 C         142.6887  144.6372  162.9197 C.ar    1  UNL1        0.0411
     15 C         143.0190  143.8873  161.6634 C.ar    1  UNL1        0.1708
     16 C         141.9414  143.5864  160.6642 C.ar    1  UNL1        0.1682
     17 N         140.5335  144.0354  160.9215 N.ar    1  UNL1       -0.2304
     18 N         142.2717  142.8365  159.4079 N.am    1  UNL1       -0.2639
     19 C         143.6797  142.3875  159.1506 C.2     1  UNL1        0.2718
     20 O         144.0100  141.6376  157.8942 O.2     1  UNL1       -0.2707
     21 C         144.7572  142.6884  160.1497 C.3     1  UNL1        0.2898
     22 O         144.4269  143.4383  161.4061 O.3     1  UNL1       -0.4628
     23 H         141.5645  142.6390  158.7521 H       1  UNL1        0.1565
     24 C         138.4870  138.8316  164.9171 C.3     1  UNL1        0.0320
     25 C         139.8596  138.2293  164.9714 C.3     1  UNL1        0.0327
     26 C         145.5560  141.2462  163.8764 C.3     1  UNL1        0.0327
     27 C         144.3710  140.3844  163.5559 C.ar    1  UNL1        0.0001
     28 C         144.2564  139.7381  162.2071 C.ar    1  UNL1        0.0352
     29 C         143.0714  138.8763  161.8866 C.ar    1  UNL1        0.1860
     30 N         142.0008  138.6606  162.9148 N.ar    1  UNL1       -0.2260
     31 C         142.1153  139.3068  164.2636 C.ar    1  UNL1        0.0982
     32 C         141.0447  139.0912  165.2919 C.ar    1  UNL1        0.0260
     33 C         141.1592  139.7374  166.6407 C.ar    1  UNL1        0.1566
     34 F         140.0886  139.5217  167.6690 F       1  UNL1       -0.2028
     35 C         142.3443  140.5993  166.9612 C.ar    1  UNL1        0.1281
     36 N         143.4149  140.8149  165.9330 N.ar    1  UNL1       -0.2403
     37 C         143.3004  140.1687  164.5841 C.ar    1  UNL1        0.0949
     38 S         142.9569  138.2300  160.5377 S.O2    1  UNL1        0.0268
     39 C         142.8424  137.5838  159.1889 C.3     1  UNL1        0.1834
     40 O         144.1563  138.9984  160.0677 O.2     1  UNL1       -0.1671
     41 O         141.7575  137.4616  161.0077 O.2     1  UNL1       -0.1671
@<TRIPOS>BOND
     1    26    27    1
     2    27    28   ar
     3    28    29   ar
     4    29    38    1
     5    38    39    1
     6    38    40    2
     7    38    41    2
     8    29    30   ar
     9    30    31   ar
    10    31    32   ar
    11    32    25    1
    12    25    24    1
    13    24     1    1
    14     1     2    1
    15     2     3    1
    16     3     4    1
    17     4     9    1
    18     9    11    1
    19    11    12    1
    20    12    13   ar
    21    13    14   ar
    22    14    15   ar
    23    15    16   ar
    24    16    17   ar
    25    16    18    1
    26    18    19   am
    27    19    20    2
    28    19    21    1
    29    21    22    1
    30     4     5    1
    31     5     6    1
    32     4     7    1
    33     7     8    1
    34    32    33   ar
    35    33    34    1
    36    33    35   ar
    37    35    36   ar
    38    36    37   ar
    39    37    27   ar
    40    37    31   ar
    41     6     1    1
    42     8     1    1
    43    17    12   ar
    44    22    15    1
    45     9    10    1
    46    18    23    1
@<TRIPOS>MOLECULE
*****
 41 46 0 0 0
SMALL
GASTEIGER

@<TRIPOS>ATOM
      1 C         141.4150  144.6695  163.5234 C.3     1  UNL1        0.0932
      2 C         141.1139  144.4574  162.0693 C.3     1  UNL1        0.0286
      3 C         139.8365  143.7874  161.6579 C.3     1  UNL1        0.0193
      4 C         138.8602  143.3294  162.7005 C.3     1  UNL1        0.0700
      5 C         139.1612  143.5415  164.1546 C.3     1  UNL1        0.0193
      6 C         140.4386  144.2116  164.5661 C.3     1  UNL1        0.0286
      7 C         139.5469  143.6917  162.9744 C.3     1  UNL1        0.1562
      8 O         140.7020  144.2976  163.3465 O.3     1  UNL1       -0.3572
      9 N         137.5828  142.6594  162.2890 N.3     1  UNL1       -0.2926
     10 H         137.4551  142.8535  161.2958 H       1  UNL1        0.1236
     11 C         137.4222  141.1784  162.4650 C.3     1  UNL1        0.1152
     12 C         138.6084  140.2725  162.3158 C.ar    1  UNL1        0.0765
     13 C         138.9907  139.3473  163.4329 C.ar    1  UNL1        0.0193
     14 C         140.1768  138.4414  163.2837 C.ar    1  UNL1        0.0411
     15 C         140.9807  138.4606  162.0175 C.ar    1  UNL1        0.1708
     16 C         140.5985  139.3858  160.9004 C.ar    1  UNL1        0.1682
     17 N         139.4123  140.2917  161.0495 N.ar    1  UNL1       -0.2304
     18 N         141.4024  139.4050  159.6342 N.am    1  UNL1       -0.2639
     19 C         142.5885  138.4990  159.4850 C.2     1  UNL1        0.2718
     20 O         143.3924  138.5182  158.2188 O.2     1  UNL1       -0.2707
     21 C         142.9708  137.5738  160.6021 C.3     1  UNL1        0.2898
     22 O         142.1669  137.5546  161.8684 O.3     1  UNL1       -0.4628
     23 H         141.1515  140.0122  158.9010 H       1  UNL1        0.1565
     24 C         142.6924  145.3396  163.9348 C.3     1  UNL1        0.0320
     25 C         143.9155  144.5167  164.2117 C.3     1  UNL1        0.0327
     26 C         143.1054  138.2012  165.6976 C.3     1  UNL1        0.0327
     27 C         143.1260  139.6810  165.9417 C.ar    1  UNL1        0.0001
     28 C         142.7724  140.2229  167.2950 C.ar    1  UNL1        0.0352
     29 C         142.7930  141.7028  167.5391 C.ar    1  UNL1        0.1860
     30 N         143.1671  142.6407  166.4300 N.ar    1  UNL1       -0.2260
     31 C         143.5207  142.0988  165.0768 C.ar    1  UNL1        0.0982
     32 C         143.8949  143.0368  163.9676 C.ar    1  UNL1        0.0260
     33 C         144.2485  142.4949  162.6143 C.ar    1  UNL1        0.1566
     34 F         144.6227  143.4329  161.5051 F       1  UNL1       -0.2028
     35 C         144.2280  141.0151  162.3702 C.ar    1  UNL1        0.1281
     36 N         143.8538  140.0771  163.4793 N.ar    1  UNL1       -0.2403
     37 C         143.5002  140.6190  164.8326 C.ar    1  UNL1        0.0949
     38 S         142.4393  142.2446  168.8924 S.O2    1  UNL1        0.0268
     39 C         142.0858  142.7865  170.2457 C.3     1  UNL1        0.1834
     40 O         141.0305  141.7601  168.7184 O.2     1  UNL1       -0.1671
     41 O         143.8482  142.7292  169.0665 O.2     1  UNL1       -0.1671
@<TRIPOS>BOND
     1    26    27    1
     2    27    28   ar
     3    28    29   ar
     4    29    38    1
     5    38    39    1
     6    38    40    2
     7    38    41    2
     8    29    30   ar
     9    30    31   ar
    10    31    32   ar
    11    32    25    1
    12    25    24    1
    13    24     1    1
    14     1     2    1
    15     2     3    1
    16     3     4    1
    17     4     9    1
    18     9    11    1
    19    11    12    1
    20    12    13   ar
    21    13    14   ar
    22    14    15   ar
    23    15    16   ar
    24    16    17   ar
    25    16    18    1
    26    18    19   am
    27    19    20    2
    28    19    21    1
    29    21    22    1
    30     4     5    1
    31     5     6    1
    32     4     7    1
    33     7     8    1
    34    32    33   ar
    35    33    34    1
    36    33    35   ar
    37    35    36   ar
    38    36    37   ar
    39    37    27   ar
    40    37    31   ar
    41     6     1    1
    42     8     1    1
    43    17    12   ar
    44    22    15    1
    45     9    10    1
    46    18    23    1
@<TRIPOS>MOLECULE
*****
 41 46 0 0 0
SMALL
GASTEIGER

@<TRIPOS>ATOM
      1 C         140.5891  138.1790  161.2077 C.3     1  UNL1        0.0932
      2 C         139.1067  138.0566  161.4014 C.3     1  UNL1        0.0286
      3 C         138.5517  137.7304  162.7562 C.3     1  UNL1        0.0193
      4 C         139.4791  137.5266  163.9174 C.3     1  UNL1        0.0700
      5 C         140.9616  137.6490  163.7238 C.3     1  UNL1        0.0193
      6 C         141.5166  137.9752  162.3689 C.3     1  UNL1        0.0286
      7 C         139.8300  137.7037  163.1939 C.3     1  UNL1        0.1562
      8 O         140.3319  137.9987  161.9688 O.3     1  UNL1       -0.3572
      9 N         138.9242  137.2004  165.2722 N.3     1  UNL1       -0.2926
     10 H         139.7166  136.9439  165.8611 H       1  UNL1        0.1236
     11 C         138.1380  138.2299  166.0285 C.3     1  UNL1        0.1152
     12 C         138.8358  139.4139  166.6296 C.ar    1  UNL1        0.0765
     13 C         139.4292  140.4659  165.7402 C.ar    1  UNL1        0.0193
     14 C         140.1270  141.6499  166.3412 C.ar    1  UNL1        0.0411
     15 C         140.2314  141.7818  167.8317 C.ar    1  UNL1        0.1708
     16 C         139.6380  140.7298  168.7212 C.ar    1  UNL1        0.1682
     17 N         138.9402  139.5458  168.1202 N.ar    1  UNL1       -0.2304
     18 N         139.7424  140.8617  170.2117 N.am    1  UNL1       -0.2639
     19 C         140.4402  142.0457  170.8128 C.2     1  UNL1        0.2718
     20 O         140.5446  142.1776  172.3033 O.2     1  UNL1       -0.2707
     21 C         141.0336  143.0977  169.9234 C.3     1  UNL1        0.2898
     22 O         140.9292  142.9658  168.4328 O.3     1  UNL1       -0.4628
     23 H         139.3529  140.1713  170.7955 H       1  UNL1        0.1565
     24 C         141.1441  138.5051  159.8529 C.3     1  UNL1        0.0320
     25 C         141.2909  139.9359  159.4271 C.3     1  UNL1        0.0327
     26 C         140.0913  144.6567  163.7889 C.3     1  UNL1        0.0327
     27 C         140.8867  143.5851  163.1041 C.ar    1  UNL1        0.0001
     28 C         142.2753  143.2663  163.5731 C.ar    1  UNL1        0.0352
     29 C         143.0707  142.1947  162.8884 C.ar    1  UNL1        0.1860
     30 N         142.4775  141.4417  161.7346 N.ar    1  UNL1       -0.2260
     31 C         141.0888  141.7605  161.2657 C.ar    1  UNL1        0.0982
     32 C         140.4955  141.0076  160.1119 C.ar    1  UNL1        0.0260
     33 C         139.1068  141.3263  159.6429 C.ar    1  UNL1        0.1566
     34 F         138.5135  140.5734  158.4891 F       1  UNL1       -0.2028
     35 C         138.3114  142.3980  160.3277 C.ar    1  UNL1        0.1281
     36 N         138.9047  143.1509  161.4814 N.ar    1  UNL1       -0.2403
     37 C         140.2934  142.8322  161.9504 C.ar    1  UNL1        0.0949
     38 S         144.4595  141.8759  163.3574 S.O2    1  UNL1        0.0268
     39 C         145.8481  141.5571  163.8264 C.3     1  UNL1        0.1834
     40 O         144.7612  143.3416  163.4602 O.2     1  UNL1       -0.1671
     41 O         144.1577  140.4102  163.2546 O.2     1  UNL1       -0.1671
@<TRIPOS>BOND
     1    26    27    1
     2    27    28   ar
     3    28    29   ar
     4    29    38    1
     5    38    39    1
     6    38    40    2
     7    38    41    2
     8    29    30   ar
     9    30    31   ar
    10    31    32   ar
    11    32    25    1
    12    25    24    1
    13    24     1    1
    14     1     2    1
    15     2     3    1
    16     3     4    1
    17     4     9    1
    18     9    11    1
    19    11    12    1
    20    12    13   ar
    21    13    14   ar
    22    14    15   ar
    23    15    16   ar
    24    16    17   ar
    25    16    18    1
    26    18    19   am
    27    19    20    2
    28    19    21    1
    29    21    22    1
    30     4     5    1
    31     5     6    1
    32     4     7    1
    33     7     8    1
    34    32    33   ar
    35    33    34    1
    36    33    35   ar
    37    35    36   ar
    38    36    37   ar
    39    37    27   ar
    40    37    31   ar
    41     6     1    1
    42     8     1    1
    43    17    12   ar
    44    22    15    1
    45     9    10    1
    46    18    23    1
@<TRIPOS>MOLECULE
*****
 41 46 0 0 0
SMALL
GASTEIGER

@<TRIPOS>ATOM
      1 C         142.3736  138.7189  162.5746 C.3     1  UNL1        0.0932
      2 C         142.6851  139.9358  161.7549 C.3     1  UNL1        0.0286
      3 C         143.6304  140.9740  162.2829 C.3     1  UNL1        0.0193
      4 C         144.2641  140.7952  163.6306 C.3     1  UNL1        0.0700
      5 C         143.9526  139.5782  164.4504 C.3     1  UNL1        0.0193
      6 C         143.0074  138.5400  163.9224 C.3     1  UNL1        0.0286
      7 C         143.7525  140.1993  163.3835 C.3     1  UNL1        0.1562
      8 O         142.8978  139.2605  162.9060 O.3     1  UNL1       -0.3572
      9 N         145.2093  141.8333  164.1587 N.3     1  UNL1       -0.2926
     10 H         145.7245  142.1973  163.3571 H       1  UNL1        0.1236
     11 C         144.6783  143.0198  164.9071 C.3     1  UNL1        0.1152
     12 C         143.4932  142.8657  165.8138 C.ar    1  UNL1        0.0765
     13 C         142.1062  142.8726  165.2428 C.ar    1  UNL1        0.0193
     14 C         140.9212  142.7185  166.1495 C.ar    1  UNL1        0.0411
     15 C         141.1232  142.5574  167.6270 C.ar    1  UNL1        0.1708
     16 C         142.5103  142.5505  168.1980 C.ar    1  UNL1        0.1682
     17 N         143.6953  142.7046  167.2914 N.ar    1  UNL1       -0.2304
     18 N         142.7124  142.3895  169.6756 N.am    1  UNL1       -0.2639
     19 C         141.5274  142.2354  170.5822 C.2     1  UNL1        0.2718
     20 O         141.7294  142.0743  172.0598 O.2     1  UNL1       -0.2707
     21 C         140.1403  142.2423  170.0113 C.3     1  UNL1        0.2898
     22 O         139.9382  142.4033  168.5337 O.3     1  UNL1       -0.4628
     23 H         143.6228  142.3849  170.0503 H       1  UNL1        0.1565
     24 C         141.4284  137.6807  162.0466 C.3     1  UNL1        0.0320
     25 C         139.9472  137.8870  162.1620 C.3     1  UNL1        0.0327
     26 C         137.4351  143.4491  164.5078 C.3     1  UNL1        0.0327
     27 C         137.9838  142.5172  163.4683 C.ar    1  UNL1        0.0001
     28 C         138.0996  142.9685  162.0425 C.ar    1  UNL1        0.0352
     29 C         138.6484  142.0367  161.0031 C.ar    1  UNL1        0.1860
     30 N         139.0813  140.6535  161.3894 N.ar    1  UNL1       -0.2260
     31 C         138.9655  140.2021  162.8151 C.ar    1  UNL1        0.0982
     32 C         139.3984  138.8189  163.2014 C.ar    1  UNL1        0.0260
     33 C         139.2826  138.3675  164.6272 C.ar    1  UNL1        0.1566
     34 F         139.7156  136.9842  165.0135 F       1  UNL1       -0.2028
     35 C         138.7339  139.2994  165.6667 C.ar    1  UNL1        0.1281
     36 N         138.3009  140.6826  165.2804 N.ar    1  UNL1       -0.2403
     37 C         138.4167  141.1340  163.8546 C.ar    1  UNL1        0.0949
     38 S         138.7642  142.4881  159.5773 S.O2    1  UNL1        0.0268
     39 C         138.8800  142.9395  158.1515 C.3     1  UNL1        0.1834
     40 O         139.2458  143.8307  160.0414 O.2     1  UNL1       -0.1671
     41 O         138.2826  141.1455  159.1131 O.2     1  UNL1       -0.1671
@<TRIPOS>BOND
     1    26    27    1
     2    27    28   ar
     3    28    29   ar
     4    29    38    1
     5    38    39    1
     6    38    40    2
     7    38    41    2
     8    29    30   ar
     9    30    31   ar
    10    31    32   ar
    11    32    25    1
    12    25    24    1
    13    24     1    1
    14     1     2    1
    15     2     3    1
    16     3     4    1
    17     4     9    1
    18     9    11    1
    19    11    12    1
    20    12    13   ar
    21    13    14   ar
    22    14    15   ar
    23    15    16   ar
    24    16    17   ar
    25    16    18    1
    26    18    19   am
    27    19    20    2
    28    19    21    1
    29    21    22    1
    30     4     5    1
    31     5     6    1
    32     4     7    1
    33     7     8    1
    34    32    33   ar
    35    33    34    1
    36    33    35   ar
    37    35    36   ar
    38    36    37   ar
    39    37    27   ar
    40    37    31   ar
    41     6     1    1
    42     8     1    1
    43    17    12   ar
    44    22    15    1
    45     9    10    1
    46    18    23    1
