@<TRIPOS>MOLECULE
*****
 33 37 0 0 0
SMALL
GASTEIGER

@<TRIPOS>ATOM
      1 N         143.2046  143.3508  162.5027 N.3     1  UNL1       -0.2724
      2 C         144.5613  142.8728  162.0777 C.3     1  UNL1        0.0724
      3 C         145.0152  141.8335  163.0595 C.3     1  UNL1        0.0215
      4 C         145.1932  140.8513  164.1791 C.3     1  UNL1        0.0073
      5 C         143.9390  141.6693  164.0914 C.3     1  UNL1        0.0371
      6 C         142.8200  142.6071  163.7472 C.3     1  UNL1        0.0762
      7 C         143.2921  141.0966  165.3175 C.ar    1  UNL1        0.0060
      8 C         142.6768  139.7293  165.2718 C.ar    1  UNL1       -0.0020
      9 C         142.0299  139.1565  166.4980 C.ar    1  UNL1       -0.0002
     10 C         141.9984  139.9510  167.7699 C.ar    1  UNL1        0.0061
     11 C         142.6137  141.3183  167.8157 C.ar    1  UNL1        0.0985
     12 C         143.2606  141.8910  166.5895 C.ar    1  UNL1        0.1400
     13 F         143.8759  143.2582  166.6353 F       1  UNL1       -0.2046
     14 C         142.5821  142.1128  169.0876 C.3     1  UNL1        0.4207
     15 F         142.5506  142.9072  170.3595 F       1  UNL1       -0.1658
     16 F         141.4675  142.9514  168.5361 F       1  UNL1       -0.1658
     17 F         143.6968  141.2741  169.6391 F       1  UNL1       -0.1658
     18 C         142.3777  144.3902  161.8056 C.3     1  UNL1        0.0730
     19 C         141.3168  145.1349  162.5605 C.3     1  UNL1        0.0294
     20 C         139.9249  145.2225  162.0083 C.3     1  UNL1        0.0666
     21 S         138.7569  144.7955  162.8471 S.3     1  UNL1       -0.0756
     22 C         138.1672  141.0559  163.7032 C.ar    1  UNL1        0.2029
     23 N         137.4392  141.1725  162.3969 N.ar    1  UNL1       -0.1250
     24 N         137.5715  142.5875  161.9172 N.ar    1  UNL1       -0.1220
     25 C         138.3813  143.3455  162.9271 C.ar    1  UNL1        0.1933
     26 N         138.7494  142.3988  164.0308 N.ar    1  UNL1       -0.2860
     27 C         139.5579  142.7361  165.2485 C.3     1  UNL1        0.1341
     28 C         139.3365  138.1803  162.6966 C.3     1  UNL1        0.0556
     29 C         138.8286  138.4926  164.0730 C.ar    1  UNL1        0.1001
     30 N         138.7690  137.5378  165.2284 N.ar    1  UNL1       -0.2085
     31 C         138.1947  138.2695  166.4051 C.ar    1  UNL1        0.2849
     32 O         137.8994  139.6764  165.9771 O.2     1  UNL1       -0.4283
     33 C         138.2911  139.8142  164.5357 C.ar    1  UNL1        0.1964
@<TRIPOS>BOND
     1    28    29    1
     2    29    30   ar
     3    30    31   ar
     4    31    32   ar
     5    32    33   ar
     6    33    22    1
     7    22    23   ar
     8    23    24   ar
     9    24    25   ar
    10    25    21    1
    11    21    20    1
    12    20    19    1
    13    19    18    1
    14    18     1    1
    15     1     2    1
    16     2     3    1
    17     3     4    1
    18     4     5    1
    19     5     7    1
    20     7     8   ar
    21     8     9   ar
    22     9    10   ar
    23    10    11   ar
    24    11    14    1
    25    14    15    1
    26    14    16    1
    27    14    17    1
    28    11    12   ar
    29    12    13    1
    30     5     6    1
    31    25    26   ar
    32    26    27    1
    33    33    29   ar
    34    26    22   ar
    35     6     1    1
    36     5     3    1
    37    12     7   ar
@<TRIPOS>MOLECULE
*****
 33 37 0 0 0
SMALL
GASTEIGER

@<TRIPOS>ATOM
      1 N         144.2089  141.2789  163.3209 N.3     1  UNL1       -0.2724
      2 C         145.1734  142.1022  164.1221 C.3     1  UNL1        0.0724
      3 C         144.5663  143.4586  164.3269 C.3     1  UNL1        0.0215
      4 C         143.7207  144.6968  164.3659 C.3     1  UNL1        0.0073
      5 C         143.2267  143.4735  163.6523 C.3     1  UNL1        0.0371
      6 C         143.0058  142.1264  163.0305 C.3     1  UNL1        0.0762
      7 C         141.9203  144.0652  163.2127 C.ar    1  UNL1        0.0060
      8 C         141.8152  144.7435  161.8790 C.ar    1  UNL1       -0.0020
      9 C         140.5088  145.3352  161.4393 C.ar    1  UNL1       -0.0002
     10 C         139.3075  145.2486  162.3335 C.ar    1  UNL1        0.0061
     11 C         139.4127  144.5703  163.6673 C.ar    1  UNL1        0.0985
     12 C         140.7191  143.9786  164.1068 C.ar    1  UNL1        0.1400
     13 F         140.8242  143.3003  165.4406 F       1  UNL1       -0.2046
     14 C         138.2114  144.4837  164.5614 C.3     1  UNL1        0.4207
     15 F         137.0102  144.3971  165.4555 F       1  UNL1       -0.1658
     16 F         138.8851  145.3846  165.5537 F       1  UNL1       -0.1658
     17 F         137.5378  143.5828  163.5691 F       1  UNL1       -0.1658
     18 C         144.4119  139.8576  162.8864 C.3     1  UNL1        0.0730
     19 C         143.2977  139.1129  162.2127 C.3     1  UNL1        0.0294
     20 C         142.4572  138.1498  162.9975 C.3     1  UNL1        0.0666
     21 S         141.4932  138.6616  164.0266 S.3     1  UNL1       -0.0756
     22 C         142.0009  139.5340  167.7744 C.ar    1  UNL1        0.2029
     23 N         143.2769  138.8063  167.4707 N.ar    1  UNL1       -0.1250
     24 N         143.2420  138.3910  166.0299 N.ar    1  UNL1       -0.1220
     25 C         141.9445  138.8619  165.4430 C.ar    1  UNL1        0.1933
     26 N         141.1774  139.5684  166.5212 N.ar    1  UNL1       -0.2860
     27 C         139.8243  140.1985  166.3722 C.3     1  UNL1        0.1341
     28 C         143.4607  142.0522  169.2499 C.3     1  UNL1        0.0556
     29 C         142.2869  141.2812  169.7770 C.ar    1  UNL1        0.1001
     30 N         141.5781  141.5324  171.0748 N.ar    1  UNL1       -0.2085
     31 C         140.4690  140.5301  171.1988 C.ar    1  UNL1        0.2849
     32 O         140.4924  139.6596  169.9775 O.2     1  UNL1       -0.4283
     33 C         141.6159  140.1238  169.0988 C.ar    1  UNL1        0.1964
@<TRIPOS>BOND
     1    28    29    1
     2    29    30   ar
     3    30    31   ar
     4    31    32   ar
     5    32    33   ar
     6    33    22    1
     7    22    23   ar
     8    23    24   ar
     9    24    25   ar
    10    25    21    1
    11    21    20    1
    12    20    19    1
    13    19    18    1
    14    18     1    1
    15     1     2    1
    16     2     3    1
    17     3     4    1
    18     4     5    1
    19     5     7    1
    20     7     8   ar
    21     8     9   ar
    22     9    10   ar
    23    10    11   ar
    24    11    14    1
    25    14    15    1
    26    14    16    1
    27    14    17    1
    28    11    12   ar
    29    12    13    1
    30     5     6    1
    31    25    26   ar
    32    26    27    1
    33    33    29   ar
    34    26    22   ar
    35     6     1    1
    36     5     3    1
    37    12     7   ar
@<TRIPOS>MOLECULE
*****
 33 37 0 0 0
SMALL
GASTEIGER

@<TRIPOS>ATOM
      1 N         141.6147  144.5303  163.9319 N.3     1  UNL1       -0.2724
      2 C         142.9302  145.2509  163.9174 C.3     1  UNL1        0.0724
      3 C         143.9594  144.3494  164.5322 C.3     1  UNL1        0.0215
      4 C         144.7481  143.2492  165.1782 C.3     1  UNL1        0.0073
      5 C         143.2801  143.0716  164.9266 C.3     1  UNL1        0.0371
      6 C         141.8310  143.1834  164.5557 C.3     1  UNL1        0.0762
      7 C         143.1894  141.6876  165.4978 C.ar    1  UNL1        0.0060
      8 C         143.7689  140.5264  164.7456 C.ar    1  UNL1       -0.0020
      9 C         143.6783  139.1423  165.3168 C.ar    1  UNL1       -0.0002
     10 C         143.0081  138.9195  166.6401 C.ar    1  UNL1        0.0061
     11 C         142.4285  140.0807  167.3923 C.ar    1  UNL1        0.0985
     12 C         142.5192  141.4647  166.8211 C.ar    1  UNL1        0.1400
     13 F         141.9397  142.6259  167.5733 F       1  UNL1       -0.2046
     14 C         141.7583  139.8579  168.7156 C.3     1  UNL1        0.4207
     15 F         141.0882  139.6351  170.0389 F       1  UNL1       -0.1658
     16 F         140.4351  139.7214  168.0225 F       1  UNL1       -0.1658
     17 F         143.0816  139.9944  169.4088 F       1  UNL1       -0.1658
     18 C         140.3118  145.0630  163.4136 C.3     1  UNL1        0.0730
     19 C         140.2455  145.6874  162.0514 C.3     1  UNL1        0.0294
     20 C         140.7891  144.9523  160.8622 C.3     1  UNL1        0.0666
     21 S         140.0263  143.7992  160.2803 S.3     1  UNL1       -0.0756
     22 C         138.5705  141.1017  162.6613 C.ar    1  UNL1        0.2029
     23 N         137.3690  141.9720  162.4402 N.ar    1  UNL1       -0.1250
     24 N         137.7681  143.0884  161.5213 N.ar    1  UNL1       -0.1220
     25 C         139.2163  142.9081  161.1746 C.ar    1  UNL1        0.1933
     26 N         139.7122  141.6802  161.8791 N.ar    1  UNL1       -0.2860
     27 C         141.1052  141.1279  161.8130 C.3     1  UNL1        0.1341
     28 C         139.0125  138.0485  161.5973 C.3     1  UNL1        0.0556
     29 C         138.8245  138.4659  163.0257 C.ar    1  UNL1        0.1001
     30 N         138.8068  137.5531  164.2159 N.ar    1  UNL1       -0.2085
     31 C         138.5926  138.3924  165.4405 C.ar    1  UNL1        0.2849
     32 O         138.4781  139.8238  165.0072 O.2     1  UNL1       -0.4283
     33 C         138.6214  139.8692  163.5148 C.ar    1  UNL1        0.1964
@<TRIPOS>BOND
     1    28    29    1
     2    29    30   ar
     3    30    31   ar
     4    31    32   ar
     5    32    33   ar
     6    33    22    1
     7    22    23   ar
     8    23    24   ar
     9    24    25   ar
    10    25    21    1
    11    21    20    1
    12    20    19    1
    13    19    18    1
    14    18     1    1
    15     1     2    1
    16     2     3    1
    17     3     4    1
    18     4     5    1
    19     5     7    1
    20     7     8   ar
    21     8     9   ar
    22     9    10   ar
    23    10    11   ar
    24    11    14    1
    25    14    15    1
    26    14    16    1
    27    14    17    1
    28    11    12   ar
    29    12    13    1
    30     5     6    1
    31    25    26   ar
    32    26    27    1
    33    33    29   ar
    34    26    22   ar
    35     6     1    1
    36     5     3    1
    37    12     7   ar
@<TRIPOS>MOLECULE
*****
 33 37 0 0 0
SMALL
GASTEIGER

@<TRIPOS>ATOM
      1 N         142.0580  139.7670  164.1139 N.3     1  UNL1       -0.2724
      2 C         141.1369  140.6220  163.2951 C.3     1  UNL1        0.0724
      3 C         140.2765  141.4107  164.2373 C.3     1  UNL1        0.0215
      4 C         139.5782  142.0485  165.4016 C.3     1  UNL1        0.0073
      5 C         140.6659  141.0432  165.6385 C.3     1  UNL1        0.0371
      6 C         141.7669  140.0273  165.5622 C.3     1  UNL1        0.0762
      7 C         140.6022  141.0932  167.1363 C.ar    1  UNL1        0.0060
      8 C         139.5757  140.2828  167.8708 C.ar    1  UNL1       -0.0020
      9 C         139.5120  140.3329  169.3687 C.ar    1  UNL1       -0.0002
     10 C         140.4747  141.1934  170.1319 C.ar    1  UNL1        0.0061
     11 C         141.5013  142.0038  169.3974 C.ar    1  UNL1        0.0985
     12 C         141.5650  141.9537  167.8996 C.ar    1  UNL1        0.1400
     13 F         142.5915  142.7642  167.1651 F       1  UNL1       -0.2046
     14 C         142.4641  142.8643  170.1606 C.3     1  UNL1        0.4207
     15 F         143.4268  143.7248  170.9239 F       1  UNL1       -0.1658
     16 F         141.4942  144.0068  170.0960 F       1  UNL1       -0.1658
     17 F         143.4339  141.7218  170.2253 F       1  UNL1       -0.1658
     18 C         143.0892  138.8183  163.5785 C.3     1  UNL1        0.0730
     19 C         144.5005  139.2827  163.3724 C.3     1  UNL1        0.0294
     20 C         145.0685  140.3648  164.2421 C.3     1  UNL1        0.0666
     21 S         145.5012  141.6661  163.6340 S.3     1  UNL1       -0.0756
     22 C         142.7822  144.1577  162.4241 C.ar    1  UNL1        0.2029
     23 N         143.1415  144.7453  163.7567 N.ar    1  UNL1       -0.1250
     24 N         144.2037  143.8834  164.3720 N.ar    1  UNL1       -0.1220
     25 C         144.5010  142.7632  163.4199 C.ar    1  UNL1        0.1933
     26 N         143.6224  142.9327  162.2160 N.ar    1  UNL1       -0.2860
     27 C         143.5899  142.0348  161.0148 C.3     1  UNL1        0.1341
     28 C         139.7291  145.0358  163.1707 C.3     1  UNL1        0.0556
     29 C         140.3585  145.1035  161.8108 C.ar    1  UNL1        0.1001
     30 N         139.6950  145.5868  160.5553 N.ar    1  UNL1       -0.2085
     31 C         140.6883  145.4819  159.4362 C.ar    1  UNL1        0.2849
     32 O         141.9656  144.9338  160.0000 O.2     1  UNL1       -0.4283
     33 C         141.7618  144.6999  161.4676 C.ar    1  UNL1        0.1964
@<TRIPOS>BOND
     1    28    29    1
     2    29    30   ar
     3    30    31   ar
     4    31    32   ar
     5    32    33   ar
     6    33    22    1
     7    22    23   ar
     8    23    24   ar
     9    24    25   ar
    10    25    21    1
    11    21    20    1
    12    20    19    1
    13    19    18    1
    14    18     1    1
    15     1     2    1
    16     2     3    1
    17     3     4    1
    18     4     5    1
    19     5     7    1
    20     7     8   ar
    21     8     9   ar
    22     9    10   ar
    23    10    11   ar
    24    11    14    1
    25    14    15    1
    26    14    16    1
    27    14    17    1
    28    11    12   ar
    29    12    13    1
    30     5     6    1
    31    25    26   ar
    32    26    27    1
    33    33    29   ar
    34    26    22   ar
    35     6     1    1
    36     5     3    1
    37    12     7   ar
@<TRIPOS>MOLECULE
*****
 33 37 0 0 0
SMALL
GASTEIGER

@<TRIPOS>ATOM
      1 N         142.4042  143.8465  164.3003 N.3     1  UNL1       -0.2724
      2 C         141.4378  144.9523  163.9948 C.3     1  UNL1        0.0724
      3 C         140.0843  144.5348  164.4885 C.3     1  UNL1        0.0215
      4 C         138.8803  143.8563  165.0715 C.3     1  UNL1        0.0073
      5 C         140.2142  143.1708  165.0991 C.3     1  UNL1        0.0371
      6 C         141.6479  142.7455  164.9828 C.3     1  UNL1        0.0762
      7 C         139.7368  141.9265  165.7874 C.ar    1  UNL1        0.0060
      8 C         138.8684  140.9491  165.0523 C.ar    1  UNL1       -0.0020
      9 C         138.3909  139.7046  165.7406 C.ar    1  UNL1       -0.0002
     10 C         138.7820  139.4378  167.1639 C.ar    1  UNL1        0.0061
     11 C         139.6506  140.4153  167.8990 C.ar    1  UNL1        0.0985
     12 C         140.1279  141.6597  167.2107 C.ar    1  UNL1        0.1400
     13 F         140.9964  142.6371  167.9458 F       1  UNL1       -0.2046
     14 C         140.0417  140.1485  169.3223 C.3     1  UNL1        0.4207
     15 F         140.4327  139.8816  170.7456 F       1  UNL1       -0.1658
     16 F         141.3140  139.5076  168.8526 F       1  UNL1       -0.1658
     17 F         138.7694  140.7893  169.7921 F       1  UNL1       -0.1658
     18 C         143.8695  143.8425  163.9796 C.3     1  UNL1        0.0730
     19 C         144.7845  142.8714  164.6649 C.3     1  UNL1        0.0294
     20 C         145.5516  141.8663  163.8580 C.3     1  UNL1        0.0666
     21 S         144.9324  140.5410  163.5260 S.3     1  UNL1       -0.0756
     22 C         141.4607  140.0149  161.8720 C.ar    1  UNL1        0.2029
     23 N         142.1862  140.7614  160.7919 N.ar    1  UNL1       -0.1250
     24 N         143.5750  141.0492  161.2801 N.ar    1  UNL1       -0.1220
     25 C         143.7078  140.4808  162.6618 C.ar    1  UNL1        0.1933
     26 N         142.4011  139.8415  163.0276 N.ar    1  UNL1       -0.2860
     27 C         142.0895  139.1502  164.3219 C.3     1  UNL1        0.1341
     28 C         138.8157  141.8652  161.3919 C.3     1  UNL1        0.0556
     29 C         138.8278  140.3779  161.5870 C.ar    1  UNL1        0.1001
     30 N         137.6262  139.4801  161.5956 N.ar    1  UNL1       -0.2085
     31 C         138.0994  138.0747  161.8216 C.ar    1  UNL1        0.2849
     32 O         139.5933  138.1040  161.9527 O.2     1  UNL1       -0.4283
     33 C         140.0435  139.5275  161.8076 C.ar    1  UNL1        0.1964
@<TRIPOS>BOND
     1    28    29    1
     2    29    30   ar
     3    30    31   ar
     4    31    32   ar
     5    32    33   ar
     6    33    22    1
     7    22    23   ar
     8    23    24   ar
     9    24    25   ar
    10    25    21    1
    11    21    20    1
    12    20    19    1
    13    19    18    1
    14    18     1    1
    15     1     2    1
    16     2     3    1
    17     3     4    1
    18     4     5    1
    19     5     7    1
    20     7     8   ar
    21     8     9   ar
    22     9    10   ar
    23    10    11   ar
    24    11    14    1
    25    14    15    1
    26    14    16    1
    27    14    17    1
    28    11    12   ar
    29    12    13    1
    30     5     6    1
    31    25    26   ar
    32    26    27    1
    33    33    29   ar
    34    26    22   ar
    35     6     1    1
    36     5     3    1
    37    12     7   ar
@<TRIPOS>MOLECULE
*****
 33 37 0 0 0
SMALL
GASTEIGER

@<TRIPOS>ATOM
      1 N         142.5845  143.2384  164.1586 N.3     1  UNL1       -0.2724
      2 C         141.7636  144.4799  163.9722 C.3     1  UNL1        0.0724
      3 C         140.4336  144.2594  164.6299 C.3     1  UNL1        0.0215
      4 C         139.2224  143.7573  165.3583 C.3     1  UNL1        0.0073
      5 C         140.4325  142.8815  165.2227 C.3     1  UNL1        0.0371
      6 C         141.7619  142.2506  164.9315 C.3     1  UNL1        0.0762
      7 C         139.8629  141.7106  165.9673 C.ar    1  UNL1        0.0060
      8 C         138.9914  140.7201  165.2536 C.ar    1  UNL1       -0.0020
      9 C         138.4217  139.5490  165.9981 C.ar    1  UNL1       -0.0002
     10 C         138.7235  139.3686  167.4563 C.ar    1  UNL1        0.0061
     11 C         139.5951  140.3592  168.1700 C.ar    1  UNL1        0.0985
     12 C         140.1648  141.5301  167.4255 C.ar    1  UNL1        0.1400
     13 F         141.0363  142.5206  168.1392 F       1  UNL1       -0.2046
     14 C         139.8970  140.1787  169.6282 C.3     1  UNL1        0.4207
     15 F         140.1989  139.9982  171.0863 F       1  UNL1       -0.1658
     16 F         138.6462  140.9282  169.9799 F       1  UNL1       -0.1658
     17 F         141.1478  139.4291  169.2765 F       1  UNL1       -0.1658
     18 C         143.9826  143.0226  163.6598 C.3     1  UNL1        0.0730
     19 C         144.4027  143.5902  162.3364 C.3     1  UNL1        0.0294
     20 C         145.0114  142.6970  161.2964 C.3     1  UNL1        0.0666
     21 S         144.1368  142.0263  160.2789 S.3     1  UNL1       -0.0756
     22 C         141.6582  139.2265  161.3193 C.ar    1  UNL1        0.2029
     23 N         142.8965  138.4278  161.0387 N.ar    1  UNL1       -0.1250
     24 N         143.9757  139.3793  160.6149 N.ar    1  UNL1       -0.1220
     25 C         143.4044  140.7662  160.6334 C.ar    1  UNL1        0.1933
     26 N         141.9721  140.6716  161.0688 N.ar    1  UNL1       -0.2860
     27 C         141.0207  141.8207  161.2260 C.3     1  UNL1        0.1341
     28 C         141.1562  137.3593  163.9483 C.3     1  UNL1        0.0556
     29 C         140.1070  137.8182  162.9794 C.ar    1  UNL1        0.1001
     30 N         138.6429  137.4995  163.0488 N.ar    1  UNL1       -0.2085
     31 C         137.9688  138.1607  161.8833 C.ar    1  UNL1        0.2849
     32 O         139.0162  138.8881  161.0936 O.2     1  UNL1       -0.4283
     33 C         140.3377  138.6764  161.7710 C.ar    1  UNL1        0.1964
@<TRIPOS>BOND
     1    28    29    1
     2    29    30   ar
     3    30    31   ar
     4    31    32   ar
     5    32    33   ar
     6    33    22    1
     7    22    23   ar
     8    23    24   ar
     9    24    25   ar
    10    25    21    1
    11    21    20    1
    12    20    19    1
    13    19    18    1
    14    18     1    1
    15     1     2    1
    16     2     3    1
    17     3     4    1
    18     4     5    1
    19     5     7    1
    20     7     8   ar
    21     8     9   ar
    22     9    10   ar
    23    10    11   ar
    24    11    14    1
    25    14    15    1
    26    14    16    1
    27    14    17    1
    28    11    12   ar
    29    12    13    1
    30     5     6    1
    31    25    26   ar
    32    26    27    1
    33    33    29   ar
    34    26    22   ar
    35     6     1    1
    36     5     3    1
    37    12     7   ar
@<TRIPOS>MOLECULE
*****
 33 37 0 0 0
SMALL
GASTEIGER

@<TRIPOS>ATOM
      1 N         142.2726  138.9732  163.5872 N.3     1  UNL1       -0.2724
      2 C         141.5253  137.8730  164.2808 C.3     1  UNL1        0.0724
      3 C         140.1113  138.3303  164.4851 C.3     1  UNL1        0.0215
      4 C         138.7962  139.0489  164.5470 C.3     1  UNL1        0.0073
      5 C         139.9848  139.7130  163.9177 C.3     1  UNL1        0.0371
      6 C         141.3206  140.1103  163.3628 C.3     1  UNL1        0.0762
      7 C         139.2813  140.9890  163.5617 C.ar    1  UNL1        0.0060
      8 C         138.6444  141.1430  162.2124 C.ar    1  UNL1       -0.0020
      9 C         137.9408  142.4191  161.8563 C.ar    1  UNL1       -0.0002
     10 C         137.8741  143.5411  162.8496 C.ar    1  UNL1        0.0061
     11 C         138.5110  143.3871  164.1990 C.ar    1  UNL1        0.0985
     12 C         139.2146  142.1111  164.5550 C.ar    1  UNL1        0.1400
     13 F         139.8514  141.9570  165.9043 F       1  UNL1       -0.2046
     14 C         138.4443  144.5091  165.1923 C.3     1  UNL1        0.4207
     15 F         138.3776  145.6310  166.1856 F       1  UNL1       -0.1658
     16 F         139.9310  144.6833  165.0954 F       1  UNL1       -0.1658
     17 F         136.9576  144.3349  165.2892 F       1  UNL1       -0.1658
     18 C         143.7182  138.9417  163.1881 C.3     1  UNL1        0.0730
     19 C         144.7730  139.3930  164.1542 C.3     1  UNL1        0.0294
     20 C         145.1154  140.8493  164.2645 C.3     1  UNL1        0.0666
     21 S         145.4056  141.6472  163.0279 S.3     1  UNL1       -0.0756
     22 C         142.7990  144.0356  161.4260 C.ar    1  UNL1        0.2029
     23 N         143.3253  144.8878  162.5426 N.ar    1  UNL1       -0.1250
     24 N         144.3658  144.0969  163.2785 N.ar    1  UNL1       -0.1220
     25 C         144.4826  142.7558  162.6168 C.ar    1  UNL1        0.1933
     26 N         143.5142  142.7180  161.4720 N.ar    1  UNL1       -0.2860
     27 C         143.2989  141.5648  160.5371 C.3     1  UNL1        0.1341
     28 C         140.2301  145.9559  162.0288 C.3     1  UNL1        0.0556
     29 C         140.5621  145.3141  160.7142 C.ar    1  UNL1        0.1001
     30 N         139.7715  145.4424  159.4460 N.ar    1  UNL1       -0.2085
     31 C         140.4636  144.6391  158.3851 C.ar    1  UNL1        0.2849
     32 O         141.6819  144.0143  158.9976 O.2     1  UNL1       -0.4283
     33 C         141.7427  144.4315  160.4372 C.ar    1  UNL1        0.1964
@<TRIPOS>BOND
     1    28    29    1
     2    29    30   ar
     3    30    31   ar
     4    31    32   ar
     5    32    33   ar
     6    33    22    1
     7    22    23   ar
     8    23    24   ar
     9    24    25   ar
    10    25    21    1
    11    21    20    1
    12    20    19    1
    13    19    18    1
    14    18     1    1
    15     1     2    1
    16     2     3    1
    17     3     4    1
    18     4     5    1
    19     5     7    1
    20     7     8   ar
    21     8     9   ar
    22     9    10   ar
    23    10    11   ar
    24    11    14    1
    25    14    15    1
    26    14    16    1
    27    14    17    1
    28    11    12   ar
    29    12    13    1
    30     5     6    1
    31    25    26   ar
    32    26    27    1
    33    33    29   ar
    34    26    22   ar
    35     6     1    1
    36     5     3    1
    37    12     7   ar
@<TRIPOS>MOLECULE
*****
 33 37 0 0 0
SMALL
GASTEIGER

@<TRIPOS>ATOM
      1 N         141.6539  144.4024  163.8099 N.3     1  UNL1       -0.2724
      2 C         142.9353  145.1786  163.8844 C.3     1  UNL1        0.0724
      3 C         143.9498  144.3317  164.5938 C.3     1  UNL1        0.0215
      4 C         144.7306  143.2762  165.3193 C.3     1  UNL1        0.0073
      5 C         143.2955  143.0319  164.9577 C.3     1  UNL1        0.0371
      6 C         141.8766  143.0756  164.4732 C.3     1  UNL1        0.0762
      7 C         143.2182  141.6540  165.5455 C.ar    1  UNL1        0.0060
      8 C         143.8084  140.4894  164.8071 C.ar    1  UNL1       -0.0020
      9 C         143.7311  139.1115  165.3948 C.ar    1  UNL1       -0.0002
     10 C         143.0634  138.8982  166.7210 C.ar    1  UNL1        0.0061
     11 C         142.4731  140.0629  167.4595 C.ar    1  UNL1        0.0985
     12 C         142.5505  141.4408  166.8717 C.ar    1  UNL1        0.1400
     13 F         141.9602  142.6054  167.6101 F       1  UNL1       -0.2046
     14 C         141.8055  139.8496  168.7857 C.3     1  UNL1        0.4207
     15 F         141.1379  139.6364  170.1118 F       1  UNL1       -0.1658
     16 F         143.1226  140.0362  169.4788 F       1  UNL1       -0.1658
     17 F         140.4883  139.6631  168.0926 F       1  UNL1       -0.1658
     18 C         140.3746  144.8707  163.1822 C.3     1  UNL1        0.0730
     19 C         139.0589  144.5284  163.8161 C.3     1  UNL1        0.0294
     20 C         137.9498  143.9596  162.9817 C.3     1  UNL1        0.0666
     21 S         137.6509  142.4905  163.0322 S.3     1  UNL1       -0.0756
     22 C         140.6706  140.0979  162.5607 C.ar    1  UNL1        0.2029
     23 N         140.3288  139.8529  164.0005 N.ar    1  UNL1       -0.1250
     24 N         139.1561  140.7194  164.3524 N.ar    1  UNL1       -0.1220
     25 C         138.7730  141.4998  163.1300 C.ar    1  UNL1        0.1933
     26 N         139.7091  141.1157  162.0227 N.ar    1  UNL1       -0.2860
     27 C         139.6873  141.6548  160.6231 C.3     1  UNL1        0.1341
     28 C         143.3160  141.5840  161.3595 C.3     1  UNL1        0.0556
     29 C         142.9952  140.1234  161.2414 C.ar    1  UNL1        0.1001
     30 N         143.8341  139.0896  160.5504 N.ar    1  UNL1       -0.2085
     31 C         143.1365  137.7676  160.6755 C.ar    1  UNL1        0.2849
     32 O         141.8667  137.9843  161.4437 O.2     1  UNL1       -0.4283
     33 C         141.7793  139.4404  161.7935 C.ar    1  UNL1        0.1964
@<TRIPOS>BOND
     1    28    29    1
     2    29    30   ar
     3    30    31   ar
     4    31    32   ar
     5    32    33   ar
     6    33    22    1
     7    22    23   ar
     8    23    24   ar
     9    24    25   ar
    10    25    21    1
    11    21    20    1
    12    20    19    1
    13    19    18    1
    14    18     1    1
    15     1     2    1
    16     2     3    1
    17     3     4    1
    18     4     5    1
    19     5     7    1
    20     7     8   ar
    21     8     9   ar
    22     9    10   ar
    23    10    11   ar
    24    11    14    1
    25    14    15    1
    26    14    16    1
    27    14    17    1
    28    11    12   ar
    29    12    13    1
    30     5     6    1
    31    25    26   ar
    32    26    27    1
    33    33    29   ar
    34    26    22   ar
    35     6     1    1
    36     5     3    1
    37    12     7   ar
@<TRIPOS>MOLECULE
*****
 33 37 0 0 0
SMALL
GASTEIGER

@<TRIPOS>ATOM
      1 N         137.8543  142.0867  163.6086 N.3     1  UNL1       -0.2724
      2 C         137.1980  143.4060  163.8890 C.3     1  UNL1        0.0724
      3 C         138.1974  144.2826  164.5837 C.3     1  UNL1        0.0215
      4 C         139.3861  144.9109  165.2488 C.3     1  UNL1        0.0073
      5 C         139.4715  143.5051  164.7327 C.3     1  UNL1        0.0371
      6 C         139.2594  142.1480  164.1300 C.3     1  UNL1        0.0762
      7 C         140.8945  143.2725  165.1461 C.ar    1  UNL1        0.0060
      8 C         142.0155  143.8499  164.3338 C.ar    1  UNL1       -0.0020
      9 C         143.4386  143.6172  164.7472 C.ar    1  UNL1       -0.0002
     10 C         143.7405  142.8072  165.9731 C.ar    1  UNL1        0.0061
     11 C         142.6194  142.2298  166.7855 C.ar    1  UNL1        0.0985
     12 C         141.1965  142.4624  166.3720 C.ar    1  UNL1        0.1400
     13 F         140.0755  141.8850  167.1844 F       1  UNL1       -0.2046
     14 C         142.9214  141.4197  168.0113 C.3     1  UNL1        0.4207
     15 F         143.2234  140.6097  169.2371 F       1  UNL1       -0.1658
     16 F         142.5890  140.1631  167.2628 F       1  UNL1       -0.1658
     17 F         143.2538  142.6764  168.7598 F       1  UNL1       -0.1658
     18 C         137.2173  140.9123  162.9266 C.3     1  UNL1        0.0730
     19 C         137.8419  140.3325  161.6923 C.3     1  UNL1        0.0294
     20 C         137.8601  138.8466  161.4881 C.3     1  UNL1        0.0666
     21 S         139.1020  138.0627  161.7937 S.3     1  UNL1       -0.0756
     22 C         142.3101  139.9609  162.8754 C.ar    1  UNL1        0.2029
     23 N         141.7621  139.5363  164.2056 N.ar    1  UNL1       -0.1250
     24 N         140.4937  138.7736  163.9623 N.ar    1  UNL1       -0.1220
     25 C         140.2577  138.7268  162.4818 C.ar    1  UNL1        0.1933
     26 N         141.3803  139.4606  161.8101 N.ar    1  UNL1       -0.2860
     27 C         141.5443  139.6592  160.3323 C.3     1  UNL1        0.1341
     28 C         145.1508  139.5217  164.4204 C.3     1  UNL1        0.0556
     29 C         144.8728  140.5459  163.3604 C.ar    1  UNL1        0.1001
     30 N         145.8518  141.5480  162.8244 N.ar    1  UNL1       -0.2085
     31 C         145.1512  142.3692  161.7829 C.ar    1  UNL1        0.2849
     32 O         143.7392  141.8747  161.6753 O.2     1  UNL1       -0.4283
     33 C         143.5672  140.7478  162.6502 C.ar    1  UNL1        0.1964
@<TRIPOS>BOND
     1    28    29    1
     2    29    30   ar
     3    30    31   ar
     4    31    32   ar
     5    32    33   ar
     6    33    22    1
     7    22    23   ar
     8    23    24   ar
     9    24    25   ar
    10    25    21    1
    11    21    20    1
    12    20    19    1
    13    19    18    1
    14    18     1    1
    15     1     2    1
    16     2     3    1
    17     3     4    1
    18     4     5    1
    19     5     7    1
    20     7     8   ar
    21     8     9   ar
    22     9    10   ar
    23    10    11   ar
    24    11    14    1
    25    14    15    1
    26    14    16    1
    27    14    17    1
    28    11    12   ar
    29    12    13    1
    30     5     6    1
    31    25    26   ar
    32    26    27    1
    33    33    29   ar
    34    26    22   ar
    35     6     1    1
    36     5     3    1
    37    12     7   ar
