@<TRIPOS>MOLECULE
*****
 33 36 0 0 0
SMALL
GASTEIGER

@<TRIPOS>ATOM
      1 C         139.8494  141.1922  164.6898 C.ar    1  UNL1        0.1432
      2 C         138.7338  142.1548  164.9703 C.ar    1  UNL1        0.0384
      3 C         138.6719  143.4644  164.2414 C.ar    1  UNL1        0.0215
      4 C         139.7257  143.8113  163.2319 C.ar    1  UNL1        0.1061
      5 C         140.8414  142.8486  162.9513 C.ar    1  UNL1        0.0259
      6 C         140.9033  141.5391  163.6802 C.ar    1  UNL1        0.0888
      7 C         142.0189  140.5765  163.3996 C.2     1  UNL1        0.2525
      8 O         143.1028  140.3680  164.4153 O.2     1  UNL1       -0.2698
      9 N         142.0507  139.8225  162.1033 N.am    1  UNL1       -0.2660
     10 C         141.0419  139.9263  160.9980 C.3     1  UNL1        0.1236
     11 C         141.4646  139.0003  159.8963 C.ar    1  UNL1        0.0338
     12 C         141.1024  138.4921  158.5323 C.ar    1  UNL1        0.0990
     13 N         142.1484  137.5018  158.1136 N.ar    1  UNL1       -0.2287
     14 N         143.1572  137.3981  159.2190 N.ar    1  UNL1       -0.1680
     15 C         142.7345  138.3241  160.3207 C.ar    1  UNL1        0.0981
     16 C         143.0967  138.8323  161.6847 C.3     1  UNL1        0.1414
     17 C         142.1802  136.7478  156.8174 C.ar    1  UNL1        0.0828
     18 C         143.4145  135.9950  156.4177 C.ar    1  UNL1        0.0191
     19 C         143.4463  135.2409  155.1213 C.ar    1  UNL1        0.0015
     20 C         142.2438  135.2397  154.2247 C.ar    1  UNL1        0.0001
     21 C         141.0094  135.9927  154.6244 C.ar    1  UNL1        0.0015
     22 C         140.9777  136.7466  155.9207 C.ar    1  UNL1        0.0191
     23 S         139.6638  145.1208  162.5030 S.O2    1  UNL1        0.0105
     24 C         139.6020  146.4303  161.7740 C.3     1  UNL1        0.1816
     25 O         141.1543  145.2511  162.6104 O.2     1  UNL1       -0.1686
     26 O         138.1733  144.9905  162.3955 O.2     1  UNL1       -0.1686
     27 O         139.9113  139.8827  165.4187 O.3     1  UNL1       -0.4702
     28 C         138.8464  138.3224  163.6351 C.3     1  UNL1        0.0566
     29 C         138.9616  138.7787  165.0593 C.3     1  UNL1        0.2599
     30 C         138.1270  138.1310  166.1242 C.3     1  UNL1        0.4340
     31 F         137.2925  137.4833  167.1891 F       1  UNL1       -0.1664
     32 F         138.5142  136.7781  165.6048 F       1  UNL1       -0.1664
     33 F         137.7398  139.4839  166.6436 F       1  UNL1       -0.1664
@<TRIPOS>BOND
     1    29    28    1
     2    29    27    1
     3    27     1    1
     4     1     2   ar
     5     2     3   ar
     6     3     4   ar
     7     4    23    1
     8    23    24    1
     9    23    25    2
    10    23    26    2
    11     4     5   ar
    12     5     6   ar
    13     6     7    1
    14     7     8    2
    15     7     9   am
    16     9    10    1
    17    10    11    1
    18    11    12   ar
    19    12    13   ar
    20    13    17    1
    21    17    18   ar
    22    18    19   ar
    23    19    20   ar
    24    20    21   ar
    25    21    22   ar
    26    13    14   ar
    27    14    15   ar
    28    15    16    1
    29    29    30    1
    30    30    31    1
    31    30    32    1
    32    30    33    1
    33     6     1   ar
    34    16     9    1
    35    15    11   ar
    36    22    17   ar
@<TRIPOS>MOLECULE
*****
 33 36 0 0 0
SMALL
GASTEIGER

@<TRIPOS>ATOM
      1 C         140.8995  140.0129  166.8108 C.ar    1  UNL1        0.1432
      2 C         140.1381  140.3033  168.0701 C.ar    1  UNL1        0.0384
      3 C         140.7297  141.2041  169.1135 C.ar    1  UNL1        0.0215
      4 C         142.0827  141.8145  168.8976 C.ar    1  UNL1        0.1061
      5 C         142.8442  141.5241  167.6382 C.ar    1  UNL1        0.0259
      6 C         142.2526  140.6233  166.5948 C.ar    1  UNL1        0.0888
      7 C         143.0142  140.3330  165.3356 C.2     1  UNL1        0.2525
      8 O         144.0475  139.2459  165.3178 O.2     1  UNL1       -0.2698
      9 N         142.7423  141.1297  164.0941 N.am    1  UNL1       -0.2660
     10 C         141.7441  142.2414  163.9608 C.3     1  UNL1        0.1236
     11 C         141.8058  142.7533  162.5523 C.ar    1  UNL1        0.0338
     12 C         141.2270  143.7568  161.5994 C.ar    1  UNL1        0.0990
     13 N         141.9056  143.5818  160.2731 N.ar    1  UNL1       -0.2287
     14 N         142.9038  142.4700  160.4064 N.ar    1  UNL1       -0.1680
     15 C         142.8421  141.9581  161.8150 C.ar    1  UNL1        0.0981
     16 C         143.4209  140.9546  162.7679 C.3     1  UNL1        0.1414
     17 C         141.6337  144.3784  159.0317 C.ar    1  UNL1        0.0828
     18 C         142.5444  144.2541  157.8463 C.ar    1  UNL1        0.0191
     19 C         142.2726  145.0508  156.6047 C.ar    1  UNL1        0.0015
     20 C         141.0900  145.9719  156.5486 C.ar    1  UNL1        0.0001
     21 C         140.1793  146.0963  157.7341 C.ar    1  UNL1        0.0015
     22 C         140.4511  145.2996  158.9755 C.ar    1  UNL1        0.0191
     23 S         142.6743  142.7152  169.9410 S.O2    1  UNL1        0.0105
     24 C         143.2659  143.6160  170.9844 C.3     1  UNL1        0.1816
     25 O         143.9737  142.7297  169.1918 O.2     1  UNL1       -0.1686
     26 O         141.3748  142.7007  170.6902 O.2     1  UNL1       -0.1686
     27 O         140.3080  139.1122  165.7674 O.3     1  UNL1       -0.4702
     28 C         138.0524  140.0534  164.8861 C.3     1  UNL1        0.0566
     29 C         138.8184  139.0002  165.6304 C.3     1  UNL1        0.2599
     30 C         138.0950  137.8350  166.2376 C.3     1  UNL1        0.4340
     31 F         137.3715  136.6698  166.8449 F       1  UNL1       -0.1664
     32 F         137.3091  138.7743  167.1038 F       1  UNL1       -0.1664
     33 F         138.8808  136.8956  165.3715 F       1  UNL1       -0.1664
@<TRIPOS>BOND
     1    29    28    1
     2    29    27    1
     3    27     1    1
     4     1     2   ar
     5     2     3   ar
     6     3     4   ar
     7     4    23    1
     8    23    24    1
     9    23    25    2
    10    23    26    2
    11     4     5   ar
    12     5     6   ar
    13     6     7    1
    14     7     8    2
    15     7     9   am
    16     9    10    1
    17    10    11    1
    18    11    12   ar
    19    12    13   ar
    20    13    17    1
    21    17    18   ar
    22    18    19   ar
    23    19    20   ar
    24    20    21   ar
    25    21    22   ar
    26    13    14   ar
    27    14    15   ar
    28    15    16    1
    29    29    30    1
    30    30    31    1
    31    30    32    1
    32    30    33    1
    33     6     1   ar
    34    16     9    1
    35    15    11   ar
    36    22    17   ar
@<TRIPOS>MOLECULE
*****
 33 36 0 0 0
SMALL
GASTEIGER

@<TRIPOS>ATOM
      1 C         139.2567  141.2780  164.6692 C.ar    1  UNL1        0.1432
      2 C         140.1220  141.7285  165.8086 C.ar    1  UNL1        0.0384
      3 C         141.2379  142.7007  165.5643 C.ar    1  UNL1        0.0215
      4 C         141.4886  143.2223  164.1804 C.ar    1  UNL1        0.1061
      5 C         140.6233  142.7717  163.0409 C.ar    1  UNL1        0.0259
      6 C         139.5074  141.7996  163.2853 C.ar    1  UNL1        0.0888
      7 C         138.6422  141.3491  162.1458 C.2     1  UNL1        0.2525
      8 O         137.2024  141.7655  162.0871 O.2     1  UNL1       -0.2698
      9 N         139.2169  140.4823  161.0649 N.am    1  UNL1       -0.2660
     10 C         140.6313  139.9887  160.9892 C.3     1  UNL1        0.1236
     11 C         140.7665  139.1581  159.7474 C.ar    1  UNL1        0.0338
     12 C         141.7243  138.3398  158.9332 C.ar    1  UNL1        0.0990
     13 N         140.9854  137.8143  157.7382 N.ar    1  UNL1       -0.2287
     14 N         139.5709  138.3080  157.8139 N.ar    1  UNL1       -0.1680
     15 C         139.4357  139.1385  159.0557 C.ar    1  UNL1        0.0981
     16 C         138.4779  139.9568  159.8699 C.3     1  UNL1        0.1414
     17 C         141.5600  136.9475  156.6573 C.ar    1  UNL1        0.0828
     18 C         140.7009  136.5160  155.5059 C.ar    1  UNL1        0.0191
     19 C         141.2755  135.6491  154.4249 C.ar    1  UNL1        0.0015
     20 C         142.7092  135.2137  154.4955 C.ar    1  UNL1        0.0001
     21 C         143.5683  135.6452  155.6470 C.ar    1  UNL1        0.0015
     22 C         142.9937  136.5120  156.7279 C.ar    1  UNL1        0.0191
     23 S         142.6045  144.1944  163.9361 S.O2    1  UNL1        0.0105
     24 C         143.7204  145.1665  163.6917 C.3     1  UNL1        0.1816
     25 O         143.6043  143.0887  164.1027 O.2     1  UNL1       -0.1686
     26 O         141.6047  145.3002  163.7694 O.2     1  UNL1       -0.1686
     27 O         138.1408  140.3059  164.9135 O.3     1  UNL1       -0.4702
     28 C         138.0009  138.2735  166.5259 C.3     1  UNL1        0.0566
     29 C         138.4504  138.8718  165.2259 C.3     1  UNL1        0.2599
     30 C         139.2094  138.0361  164.2383 C.3     1  UNL1        0.4340
     31 F         139.9683  137.2004  163.2505 F       1  UNL1       -0.1664
     32 F         138.1662  138.3183  163.1978 F       1  UNL1       -0.1664
     33 F         140.2525  137.7539  165.2785 F       1  UNL1       -0.1664
@<TRIPOS>BOND
     1    29    28    1
     2    29    27    1
     3    27     1    1
     4     1     2   ar
     5     2     3   ar
     6     3     4   ar
     7     4    23    1
     8    23    24    1
     9    23    25    2
    10    23    26    2
    11     4     5   ar
    12     5     6   ar
    13     6     7    1
    14     7     8    2
    15     7     9   am
    16     9    10    1
    17    10    11    1
    18    11    12   ar
    19    12    13   ar
    20    13    17    1
    21    17    18   ar
    22    18    19   ar
    23    19    20   ar
    24    20    21   ar
    25    21    22   ar
    26    13    14   ar
    27    14    15   ar
    28    15    16    1
    29    29    30    1
    30    30    31    1
    31    30    32    1
    32    30    33    1
    33     6     1   ar
    34    16     9    1
    35    15    11   ar
    36    22    17   ar
@<TRIPOS>MOLECULE
*****
 33 36 0 0 0
SMALL
GASTEIGER

@<TRIPOS>ATOM
      1 C         139.0615  140.4332  166.3010 C.ar    1  UNL1        0.1432
      2 C         139.3801  139.7388  167.5918 C.ar    1  UNL1        0.0384
      3 C         140.2828  140.3953  168.5938 C.ar    1  UNL1        0.0215
      4 C         140.8669  141.7464  168.3051 C.ar    1  UNL1        0.1061
      5 C         140.5483  142.4409  167.0142 C.ar    1  UNL1        0.0259
      6 C         139.6457  141.7843  166.0122 C.ar    1  UNL1        0.0888
      7 C         139.3271  142.4788  164.7214 C.2     1  UNL1        0.2525
      8 O         138.1152  143.3570  164.6214 O.2     1  UNL1       -0.2698
      9 N         140.2206  142.2952  163.5305 N.am    1  UNL1       -0.2660
     10 C         141.4606  141.4527  163.4802 C.3     1  UNL1        0.1236
     11 C         142.0372  141.5587  162.0995 C.ar    1  UNL1        0.0338
     12 C         143.1599  141.1035  161.2151 C.ar    1  UNL1        0.0990
     13 N         142.9702  141.7301  159.8655 N.ar    1  UNL1       -0.2287
     14 N         141.7302  142.5727  159.9159 N.ar    1  UNL1       -0.1680
     15 C         141.1536  142.4667  161.2966 C.ar    1  UNL1        0.0981
     16 C         140.0308  142.9219  162.1810 C.3     1  UNL1        0.1414
     17 C         143.8636  141.5465  158.6747 C.ar    1  UNL1        0.0828
     18 C         144.9672  142.5265  158.4068 C.ar    1  UNL1        0.0191
     19 C         145.8607  142.3429  157.2160 C.ar    1  UNL1        0.0015
     20 C         145.6505  141.1793  156.2930 C.ar    1  UNL1        0.0001
     21 C         144.5468  140.1993  156.5609 C.ar    1  UNL1        0.0015
     22 C         143.6535  140.3829  157.7517 C.ar    1  UNL1        0.0191
     23 S         141.7696  142.4030  169.3071 S.O2    1  UNL1        0.0105
     24 C         142.6723  143.0595  170.3092 C.3     1  UNL1        0.1816
     25 O         142.8857  142.3981  168.3050 O.2     1  UNL1       -0.1686
     26 O         140.6534  142.4079  170.3093 O.2     1  UNL1       -0.1686
     27 O         138.1589  139.7767  165.2990 O.3     1  UNL1       -0.4702
     28 C         138.3868  139.1805  162.7805 C.3     1  UNL1        0.0566
     29 C         138.7403  138.9188  164.2145 C.3     1  UNL1        0.2599
     30 C         139.6753  137.7992  164.5643 C.3     1  UNL1        0.4340
     31 F         140.6103  136.6796  164.9139 F       1  UNL1       -0.1664
     32 F         140.7135  138.3809  163.6511 F       1  UNL1       -0.1664
     33 F         138.6372  137.2174  165.4774 F       1  UNL1       -0.1664
@<TRIPOS>BOND
     1    29    28    1
     2    29    27    1
     3    27     1    1
     4     1     2   ar
     5     2     3   ar
     6     3     4   ar
     7     4    23    1
     8    23    24    1
     9    23    25    2
    10    23    26    2
    11     4     5   ar
    12     5     6   ar
    13     6     7    1
    14     7     8    2
    15     7     9   am
    16     9    10    1
    17    10    11    1
    18    11    12   ar
    19    12    13   ar
    20    13    17    1
    21    17    18   ar
    22    18    19   ar
    23    19    20   ar
    24    20    21   ar
    25    21    22   ar
    26    13    14   ar
    27    14    15   ar
    28    15    16    1
    29    29    30    1
    30    30    31    1
    31    30    32    1
    32    30    33    1
    33     6     1   ar
    34    16     9    1
    35    15    11   ar
    36    22    17   ar
@<TRIPOS>MOLECULE
*****
 33 36 0 0 0
SMALL
GASTEIGER

@<TRIPOS>ATOM
      1 C         141.8409  139.1464  166.5783 C.ar    1  UNL1        0.1432
      2 C         142.6783  139.5218  167.7649 C.ar    1  UNL1        0.0384
      3 C         142.1397  140.4726  168.7924 C.ar    1  UNL1        0.0215
      4 C         140.7636  141.0481  168.6334 C.ar    1  UNL1        0.1061
      5 C         139.9262  140.6728  167.4468 C.ar    1  UNL1        0.0259
      6 C         140.4648  139.7220  166.4193 C.ar    1  UNL1        0.0888
      7 C         139.6273  139.3467  165.2328 C.2     1  UNL1        0.2525
      8 O         138.7708  138.1161  165.2784 O.2     1  UNL1       -0.2698
      9 N         139.6463  140.2020  164.0007 N.am    1  UNL1       -0.2660
     10 C         140.4487  141.4548  163.8094 C.3     1  UNL1        0.1236
     11 C         140.1645  141.9817  162.4340 C.ar    1  UNL1        0.0338
     12 C         140.4848  143.0816  161.4657 C.ar    1  UNL1        0.0990
     13 N         139.7048  142.8343  160.2086 N.ar    1  UNL1       -0.2287
     14 N         138.9023  141.5814  160.4000 N.ar    1  UNL1       -0.1680
     15 C         139.1865  141.0545  161.7753 C.ar    1  UNL1        0.0981
     16 C         138.8662  139.9546  162.7436 C.3     1  UNL1        0.1414
     17 C         139.7238  143.6895  158.9765 C.ar    1  UNL1        0.0828
     18 C         139.1113  143.1848  157.7037 C.ar    1  UNL1        0.0191
     19 C         139.1303  144.0401  156.4715 C.ar    1  UNL1        0.0015
     20 C         139.7617  145.4000  156.5122 C.ar    1  UNL1        0.0001
     21 C         140.3742  145.9048  157.7851 C.ar    1  UNL1        0.0015
     22 C         140.3553  145.0495  159.0172 C.ar    1  UNL1        0.0191
     23 S         140.2250  141.9990  169.6610 S.O2    1  UNL1        0.0105
     24 C         139.6865  142.9498  170.6885 C.3     1  UNL1        0.1816
     25 O         140.4390  143.1429  168.7146 O.2     1  UNL1       -0.1686
     26 O         140.0111  140.8549  170.6073 O.2     1  UNL1       -0.1686
     27 O         142.3794  138.1956  165.5508 O.3     1  UNL1       -0.4702
     28 C         142.5082  138.3769  162.9623 C.3     1  UNL1        0.0566
     29 C         143.0492  138.7248  164.3174 C.3     1  UNL1        0.2599
     30 C         144.2600  139.6018  164.4391 C.3     1  UNL1        0.4340
     31 F         145.4708  140.4788  164.5608 F       1  UNL1       -0.1664
     32 F         143.6527  140.5745  163.4720 F       1  UNL1       -0.1664
     33 F         144.8674  138.6292  165.4061 F       1  UNL1       -0.1664
@<TRIPOS>BOND
     1    29    28    1
     2    29    27    1
     3    27     1    1
     4     1     2   ar
     5     2     3   ar
     6     3     4   ar
     7     4    23    1
     8    23    24    1
     9    23    25    2
    10    23    26    2
    11     4     5   ar
    12     5     6   ar
    13     6     7    1
    14     7     8    2
    15     7     9   am
    16     9    10    1
    17    10    11    1
    18    11    12   ar
    19    12    13   ar
    20    13    17    1
    21    17    18   ar
    22    18    19   ar
    23    19    20   ar
    24    20    21   ar
    25    21    22   ar
    26    13    14   ar
    27    14    15   ar
    28    15    16    1
    29    29    30    1
    30    30    31    1
    31    30    32    1
    32    30    33    1
    33     6     1   ar
    34    16     9    1
    35    15    11   ar
    36    22    17   ar
@<TRIPOS>MOLECULE
*****
 33 36 0 0 0
SMALL
GASTEIGER

@<TRIPOS>ATOM
      1 C         143.0754  139.6964  165.1311 C.ar    1  UNL1        0.1432
      2 C         142.3290  139.1194  166.2972 C.ar    1  UNL1        0.0384
      3 C         142.0255  139.9752  167.4912 C.ar    1  UNL1        0.0215
      4 C         142.4684  141.4081  167.5190 C.ar    1  UNL1        0.1061
      5 C         143.2148  141.9851  166.3527 C.ar    1  UNL1        0.0259
      6 C         143.5184  141.1293  165.1588 C.ar    1  UNL1        0.0888
      7 C         144.2648  141.7064  163.9927 C.2     1  UNL1        0.2525
      8 O         145.7646  141.7241  163.9968 O.2     1  UNL1       -0.2698
      9 N         143.5113  142.2657  162.8225 N.am    1  UNL1       -0.2660
     10 C         142.0192  142.3167  162.6774 C.3     1  UNL1        0.1236
     11 C         141.7034  142.9548  161.3571 C.ar    1  UNL1        0.0338
     12 C         140.5861  143.3807  160.4515 C.ar    1  UNL1        0.0990
     13 N         141.1924  143.9873  159.2209 N.ar    1  UNL1       -0.2287
     14 N         142.6846  143.9363  159.3660 N.ar    1  UNL1       -0.1680
     15 C         143.0004  143.2982  160.6862 C.ar    1  UNL1        0.0981
     16 C         144.1177  142.8723  161.5919 C.3     1  UNL1        0.1414
     17 C         140.4390  144.5466  158.0507 C.ar    1  UNL1        0.0828
     18 C         139.6150  143.6392  157.1861 C.ar    1  UNL1        0.0191
     19 C         138.8615  144.1985  156.0158 C.ar    1  UNL1        0.0015
     20 C         138.9321  145.6653  155.7102 C.ar    1  UNL1        0.0001
     21 C         139.7562  146.5728  156.5749 C.ar    1  UNL1        0.0015
     22 C         140.5096  146.0135  157.7450 C.ar    1  UNL1        0.0191
     23 S         142.1649  142.2639  168.7129 S.O2    1  UNL1        0.0105
     24 C         141.8613  143.1197  169.9068 C.3     1  UNL1        0.1816
     25 O         143.6059  142.6741  168.7852 O.2     1  UNL1       -0.1686
     26 O         140.7238  141.8536  168.6405 O.2     1  UNL1       -0.1686
     27 O         143.3790  138.8406  163.9372 O.3     1  UNL1       -0.4702
     28 C         142.6255  138.7655  161.4519 C.3     1  UNL1        0.0566
     29 C         142.3175  138.5844  162.9087 C.3     1  UNL1        0.2599
     30 C         140.9482  138.1470  163.3372 C.3     1  UNL1        0.4340
     31 F         139.5789  137.7096  163.7656 F       1  UNL1       -0.1664
     32 F         141.4818  136.7798  163.6472 F       1  UNL1       -0.1664
     33 F         140.4145  139.5141  163.0272 F       1  UNL1       -0.1664
@<TRIPOS>BOND
     1    29    28    1
     2    29    27    1
     3    27     1    1
     4     1     2   ar
     5     2     3   ar
     6     3     4   ar
     7     4    23    1
     8    23    24    1
     9    23    25    2
    10    23    26    2
    11     4     5   ar
    12     5     6   ar
    13     6     7    1
    14     7     8    2
    15     7     9   am
    16     9    10    1
    17    10    11    1
    18    11    12   ar
    19    12    13   ar
    20    13    17    1
    21    17    18   ar
    22    18    19   ar
    23    19    20   ar
    24    20    21   ar
    25    21    22   ar
    26    13    14   ar
    27    14    15   ar
    28    15    16    1
    29    29    30    1
    30    30    31    1
    31    30    32    1
    32    30    33    1
    33     6     1   ar
    34    16     9    1
    35    15    11   ar
    36    22    17   ar
@<TRIPOS>MOLECULE
*****
 33 36 0 0 0
SMALL
GASTEIGER

@<TRIPOS>ATOM
      1 C         141.6904  142.5804  165.5531 C.ar    1  UNL1        0.1432
      2 C         142.1588  141.2980  166.1742 C.ar    1  UNL1        0.0384
      3 C         141.1781  140.1982  166.4544 C.ar    1  UNL1        0.0215
      4 C         139.7288  140.3808  166.1135 C.ar    1  UNL1        0.1061
      5 C         139.2603  141.6633  165.4924 C.ar    1  UNL1        0.0259
      6 C         140.2410  142.7632  165.2122 C.ar    1  UNL1        0.0888
      7 C         139.7725  144.0456  164.5911 C.2     1  UNL1        0.2525
      8 O         139.0944  145.0838  165.4350 O.2     1  UNL1       -0.2698
      9 N         139.9821  144.2899  163.1260 N.am    1  UNL1       -0.2660
     10 C         140.6409  143.3495  162.1608 C.3     1  UNL1        0.1236
     11 C         140.6356  143.9959  160.8072 C.ar    1  UNL1        0.0338
     12 C         141.0394  143.8142  159.3741 C.ar    1  UNL1        0.0990
     13 N         140.6270  145.0417  158.6170 N.ar    1  UNL1       -0.2287
     14 N         139.9682  145.9821  159.5823 N.ar    1  UNL1       -0.1680
     15 C         139.9735  145.3357  160.9359 C.ar    1  UNL1        0.0981
     16 C         139.5696  145.5174  162.3690 C.3     1  UNL1        0.1414
     17 C         140.8366  145.2860  157.1520 C.ar    1  UNL1        0.0828
     18 C         142.0283  144.6977  156.4565 C.ar    1  UNL1        0.0191
     19 C         142.2379  144.9420  154.9914 C.ar    1  UNL1        0.0015
     20 C         141.2557  145.7745  154.2218 C.ar    1  UNL1        0.0001
     21 C         140.0639  146.3628  154.9174 C.ar    1  UNL1        0.0015
     22 C         139.8544  146.1185  156.3824 C.ar    1  UNL1        0.0191
     23 S         138.7480  139.2810  166.3937 S.O2    1  UNL1        0.0105
     24 C         137.7673  138.1812  166.6739 C.3     1  UNL1        0.1816
     25 O         138.4562  139.1675  164.9268 O.2     1  UNL1       -0.1686
     26 O         139.0399  139.3945  167.8607 O.2     1  UNL1       -0.1686
     27 O         142.6711  143.6802  165.2729 O.3     1  UNL1       -0.4702
     28 C         143.6923  144.6458  163.0878 C.3     1  UNL1        0.0566
     29 C         143.6237  143.5601  164.1204 C.3     1  UNL1        0.2599
     30 C         144.5076  142.3542  164.0007 C.3     1  UNL1        0.4340
     31 F         145.3915  141.1482  163.8809 F       1  UNL1       -0.1664
     32 F         143.6168  141.8081  162.9244 F       1  UNL1       -0.1664
     33 F         145.3984  142.9001  165.0770 F       1  UNL1       -0.1664
@<TRIPOS>BOND
     1    29    28    1
     2    29    27    1
     3    27     1    1
     4     1     2   ar
     5     2     3   ar
     6     3     4   ar
     7     4    23    1
     8    23    24    1
     9    23    25    2
    10    23    26    2
    11     4     5   ar
    12     5     6   ar
    13     6     7    1
    14     7     8    2
    15     7     9   am
    16     9    10    1
    17    10    11    1
    18    11    12   ar
    19    12    13   ar
    20    13    17    1
    21    17    18   ar
    22    18    19   ar
    23    19    20   ar
    24    20    21   ar
    25    21    22   ar
    26    13    14   ar
    27    14    15   ar
    28    15    16    1
    29    29    30    1
    30    30    31    1
    31    30    32    1
    32    30    33    1
    33     6     1   ar
    34    16     9    1
    35    15    11   ar
    36    22    17   ar
@<TRIPOS>MOLECULE
*****
 33 36 0 0 0
SMALL
GASTEIGER

@<TRIPOS>ATOM
      1 C         141.4075  142.3286  164.7303 C.ar    1  UNL1        0.1432
      2 C         140.4198  142.4223  165.8552 C.ar    1  UNL1        0.0384
      3 C         140.6817  141.7033  167.1453 C.ar    1  UNL1        0.0215
      4 C         141.9315  140.8905  167.3106 C.ar    1  UNL1        0.1061
      5 C         142.9194  140.7967  166.1856 C.ar    1  UNL1        0.0259
      6 C         142.6574  141.5157  164.8955 C.ar    1  UNL1        0.0888
      7 C         143.6452  141.4219  163.7706 C.2     1  UNL1        0.2525
      8 O         144.9620  142.1338  163.8675 O.2     1  UNL1       -0.2698
      9 N         143.3163  140.6162  162.5488 N.am    1  UNL1       -0.2660
     10 C         142.0465  139.8540  162.3109 C.3     1  UNL1        0.1236
     11 C         142.1450  139.1980  160.9655 C.ar    1  UNL1        0.0338
     12 C         141.4210  138.3215  159.9869 C.ar    1  UNL1        0.0990
     13 N         142.3041  138.1366  158.7886 N.ar    1  UNL1       -0.2287
     14 N         143.5739  138.8989  159.0266 N.ar    1  UNL1       -0.1680
     15 C         143.4755  139.5548  160.3720 C.ar    1  UNL1        0.0981
     16 C         144.1995  140.4314  161.3506 C.3     1  UNL1        0.1414
     17 C         141.9753  137.3309  157.5669 C.ar    1  UNL1        0.0828
     18 C         140.6837  137.5635  156.8404 C.ar    1  UNL1        0.0191
     19 C         140.3548  136.7578  155.6186 C.ar    1  UNL1        0.0015
     20 C         141.3174  135.7196  155.1233 C.ar    1  UNL1        0.0001
     21 C         142.6091  135.4870  155.8499 C.ar    1  UNL1        0.0015
     22 C         142.9379  136.2926  157.0716 C.ar    1  UNL1        0.0191
     23 S         142.1935  140.1714  168.6007 S.O2    1  UNL1        0.0105
     24 C         142.4555  139.4524  169.8907 C.3     1  UNL1        0.1816
     25 O         143.0706  139.1930  167.8772 O.2     1  UNL1       -0.1686
     26 O         141.3164  141.1500  169.3241 O.2     1  UNL1       -0.1686
     27 O         141.1456  143.0476  163.4402 O.3     1  UNL1       -0.4702
     28 C         142.5891  145.1582  163.9000 C.3     1  UNL1        0.0566
     29 C         141.3387  144.5328  163.3567 C.3     1  UNL1        0.2599
     30 C         140.2813  145.3924  162.7300 C.3     1  UNL1        0.4340
     31 F         139.2238  146.2521  162.1033 F       1  UNL1       -0.1664
     32 F         139.4602  145.2950  163.9816 F       1  UNL1       -0.1664
     33 F         141.1022  145.4899  161.4784 F       1  UNL1       -0.1664
@<TRIPOS>BOND
     1    29    28    1
     2    29    27    1
     3    27     1    1
     4     1     2   ar
     5     2     3   ar
     6     3     4   ar
     7     4    23    1
     8    23    24    1
     9    23    25    2
    10    23    26    2
    11     4     5   ar
    12     5     6   ar
    13     6     7    1
    14     7     8    2
    15     7     9   am
    16     9    10    1
    17    10    11    1
    18    11    12   ar
    19    12    13   ar
    20    13    17    1
    21    17    18   ar
    22    18    19   ar
    23    19    20   ar
    24    20    21   ar
    25    21    22   ar
    26    13    14   ar
    27    14    15   ar
    28    15    16    1
    29    29    30    1
    30    30    31    1
    31    30    32    1
    32    30    33    1
    33     6     1   ar
    34    16     9    1
    35    15    11   ar
    36    22    17   ar
@<TRIPOS>MOLECULE
*****
 33 36 0 0 0
SMALL
GASTEIGER

@<TRIPOS>ATOM
      1 C         140.8247  142.2123  164.9197 C.ar    1  UNL1        0.1432
      2 C         141.8286  142.7877  165.8742 C.ar    1  UNL1        0.0384
      3 C         142.2721  141.9921  167.0660 C.ar    1  UNL1        0.0215
      4 C         141.7117  140.6211  167.3033 C.ar    1  UNL1        0.1061
      5 C         140.7078  140.0457  166.3487 C.ar    1  UNL1        0.0259
      6 C         140.2643  140.8413  165.1569 C.ar    1  UNL1        0.0888
      7 C         139.2604  140.2659  164.2024 C.2     1  UNL1        0.2525
      8 O         137.8127  140.1958  164.5887 O.2     1  UNL1       -0.2698
      9 N         139.7042  139.7605  162.8617 N.am    1  UNL1       -0.2660
     10 C         141.1101  139.7649  162.3390 C.3     1  UNL1        0.1236
     11 C         141.0948  139.1691  160.9625 C.ar    1  UNL1        0.0338
     12 C         141.9542  138.8036  159.7887 C.ar    1  UNL1        0.0990
     13 N         141.0700  138.2051  158.7352 N.ar    1  UNL1       -0.2287
     14 N         139.6639  138.2006  159.2580 N.ar    1  UNL1       -0.1680
     15 C         139.6793  138.7964  160.6345 C.ar    1  UNL1        0.0981
     16 C         138.8199  139.1619  161.8082 C.3     1  UNL1        0.1414
     17 C         141.5137  137.6997  157.3945 C.ar    1  UNL1        0.0828
     18 C         140.4960  137.2566  156.3856 C.ar    1  UNL1        0.0191
     19 C         140.9397  136.7512  155.0448 C.ar    1  UNL1        0.0015
     20 C         142.4012  136.6889  154.7129 C.ar    1  UNL1        0.0001
     21 C         143.4190  137.1320  155.7219 C.ar    1  UNL1        0.0015
     22 C         142.9753  137.6374  157.0626 C.ar    1  UNL1        0.0191
     23 S         142.1553  139.8255  168.4950 S.O2    1  UNL1        0.0105
     24 C         142.5988  139.0299  169.6868 C.3     1  UNL1        0.1816
     25 O         143.0889  139.0396  167.6229 O.2     1  UNL1       -0.1686
     26 O         141.2215  140.6115  169.3671 O.2     1  UNL1       -0.1686
     27 O         140.3812  143.0079  163.7279 O.3     1  UNL1       -0.4702
     28 C         138.0908  143.5240  162.6154 C.3     1  UNL1        0.0566
     29 C         139.0571  143.7125  163.7471 C.3     1  UNL1        0.2599
     30 C         138.6994  144.6055  164.8979 C.3     1  UNL1        0.4340
     31 F         138.3418  145.4986  166.0487 F       1  UNL1       -0.1664
     32 F         139.9814  145.3614  164.7098 F       1  UNL1       -0.1664
     33 F         137.4175  143.8497  165.0860 F       1  UNL1       -0.1664
@<TRIPOS>BOND
     1    29    28    1
     2    29    27    1
     3    27     1    1
     4     1     2   ar
     5     2     3   ar
     6     3     4   ar
     7     4    23    1
     8    23    24    1
     9    23    25    2
    10    23    26    2
    11     4     5   ar
    12     5     6   ar
    13     6     7    1
    14     7     8    2
    15     7     9   am
    16     9    10    1
    17    10    11    1
    18    11    12   ar
    19    12    13   ar
    20    13    17    1
    21    17    18   ar
    22    18    19   ar
    23    19    20   ar
    24    20    21   ar
    25    21    22   ar
    26    13    14   ar
    27    14    15   ar
    28    15    16    1
    29    29    30    1
    30    30    31    1
    31    30    32    1
    32    30    33    1
    33     6     1   ar
    34    16     9    1
    35    15    11   ar
    36    22    17   ar
