@<TRIPOS>MOLECULE
*****
 22 25 0 0 0
SMALL
GASTEIGER

@<TRIPOS>ATOM
      1 C         140.5684  140.3299  167.0391 C.3     1  UNL1        0.0849
      2 C         139.3485  139.5991  166.5618 C.3     1  UNL1        0.0159
      3 C         138.5855  140.1085  165.3751 C.3     1  UNL1        0.0444
      4 C         139.0425  141.3487  164.6657 C.ar    1  UNL1        0.0398
      5 C         140.2624  142.0794  165.1430 C.ar    1  UNL1        0.0478
      6 C         140.4713  143.2659  164.2493 C.ar    1  UNL1        0.0196
      7 C         141.5138  144.3443  164.2401 C.ar    1  UNL1        0.0016
      8 C         141.4656  145.4252  163.2013 C.ar    1  UNL1        0.0001
      9 C         140.3748  145.4278  162.1717 C.ar    1  UNL1        0.0015
     10 C         139.3322  144.3494  162.1809 C.ar    1  UNL1        0.0172
     11 C         139.3805  143.2685  163.2197 C.ar    1  UNL1        0.0598
     12 N         138.4974  142.0836  163.4770 N.ar    1  UNL1       -0.3285
     13 C         137.2826  141.7007  162.6848 C.3     1  UNL1        0.1301
     14 C         141.0253  141.5700  166.3297 C.2     1  UNL1        0.1756
     15 O         142.2453  142.3008  166.8071 O.2     1  UNL1       -0.2912
     16 C         141.3315  139.8205  168.2259 C.3     1  UNL1        0.1149
     17 C         138.7155  140.3145  170.1133 C.3     1  UNL1        0.0718
     18 C         140.1048  140.8108  170.3845 C.ar    1  UNL1        0.1208
     19 N         140.5356  141.6213  171.5709 N.ar    1  UNL1       -0.2293
     20 C         142.0043  141.8951  171.4366 C.ar    1  UNL1        0.1188
     21 C         142.4812  141.2539  170.1672 C.ar    1  UNL1        0.0977
     22 N         141.3072  140.5837  169.5170 N.ar    1  UNL1       -0.3132
@<TRIPOS>BOND
     1    17    18    1
     2    18    19   ar
     3    19    20   ar
     4    20    21   ar
     5    21    22   ar
     6    22    16    1
     7     1    16    1
     8     1     2    1
     9     2     3    1
    10     3     4    1
    11     4     5   ar
    12     5     6   ar
    13     6     7   ar
    14     7     8   ar
    15     8     9   ar
    16     9    10   ar
    17    10    11   ar
    18    11    12   ar
    19    12    13    1
    20     5    14    1
    21    14    15    2
    22    22    18   ar
    23    14     1    1
    24    12     4   ar
    25    11     6   ar
@<TRIPOS>MOLECULE
*****
 22 25 0 0 0
SMALL
GASTEIGER

@<TRIPOS>ATOM
      1 C         141.1004  141.9837  166.8959 C.3     1  UNL1        0.0849
      2 C         140.5544  143.3156  166.4743 C.3     1  UNL1        0.0159
      3 C         139.6410  143.4104  165.2882 C.3     1  UNL1        0.0444
      4 C         139.2736  142.1732  164.5238 C.ar    1  UNL1        0.0398
      5 C         139.8196  140.8412  164.9454 C.ar    1  UNL1        0.0478
      6 C         139.2852  139.8023  164.0046 C.ar    1  UNL1        0.0196
      7 C         139.4832  138.3172  163.9318 C.ar    1  UNL1        0.0016
      8 C         138.8049  137.5220  162.8559 C.ar    1  UNL1        0.0001
      9 C         137.9286  138.2119  161.8529 C.ar    1  UNL1        0.0015
     10 C         137.7305  139.6970  161.9258 C.ar    1  UNL1        0.0172
     11 C         138.4088  140.4921  163.0016 C.ar    1  UNL1        0.0598
     12 N         138.4017  141.9574  163.3225 N.ar    1  UNL1       -0.3285
     13 C         137.6538  143.0203  162.5735 C.3     1  UNL1        0.1301
     14 C         140.7330  140.7465  166.1314 C.2     1  UNL1        0.1756
     15 O         141.2791  139.4145  166.5531 O.2     1  UNL1       -0.2912
     16 C         142.0138  141.8889  168.0820 C.3     1  UNL1        0.1149
     17 C         140.5758  144.1212  169.9789 C.3     1  UNL1        0.0718
     18 C         140.7841  142.6757  170.3212 C.ar    1  UNL1        0.1208
     19 N         140.3680  142.0025  171.5954 N.ar    1  UNL1       -0.2293
     20 C         140.7719  140.5603  171.5109 C.ar    1  UNL1        0.1188
     21 C         141.4375  140.3423  170.1846 C.ar    1  UNL1        0.0977
     22 N         141.4451  141.6497  169.4492 N.ar    1  UNL1       -0.3132
@<TRIPOS>BOND
     1    17    18    1
     2    18    19   ar
     3    19    20   ar
     4    20    21   ar
     5    21    22   ar
     6    22    16    1
     7     1    16    1
     8     1     2    1
     9     2     3    1
    10     3     4    1
    11     4     5   ar
    12     5     6   ar
    13     6     7   ar
    14     7     8   ar
    15     8     9   ar
    16     9    10   ar
    17    10    11   ar
    18    11    12   ar
    19    12    13    1
    20     5    14    1
    21    14    15    2
    22    22    18   ar
    23    14     1    1
    24    12     4   ar
    25    11     6   ar
@<TRIPOS>MOLECULE
*****
 22 25 0 0 0
SMALL
GASTEIGER

@<TRIPOS>ATOM
      1 C         141.6056  139.5866  167.7511 C.3     1  UNL1        0.0849
      2 C         143.0148  139.2663  167.3492 C.3     1  UNL1        0.0159
      3 C         143.3356  138.9649  165.9152 C.3     1  UNL1        0.0444
      4 C         142.2472  138.9838  164.8832 C.ar    1  UNL1        0.0398
      5 C         140.8380  139.3041  165.2851 C.ar    1  UNL1        0.0478
      6 C         139.9810  139.2480  164.0553 C.ar    1  UNL1        0.0196
      7 C         138.5134  139.4743  163.8434 C.ar    1  UNL1        0.0016
      8 C         137.9254  139.3456  162.4695 C.ar    1  UNL1        0.0001
      9 C         138.8050  138.9905  161.3075 C.ar    1  UNL1        0.0015
     10 C         140.2726  138.7642  161.5194 C.ar    1  UNL1        0.0172
     11 C         140.8606  138.8930  162.8933 C.ar    1  UNL1        0.0598
     12 N         142.2611  138.7297  163.4050 N.ar    1  UNL1       -0.3285
     13 C         143.4644  138.3746  162.5827 C.3     1  UNL1        0.1301
     14 C         140.5172  139.6055  166.7191 C.2     1  UNL1        0.1756
     15 O         139.1079  139.9259  167.1210 O.2     1  UNL1       -0.2912
     16 C         141.2847  139.8880  169.1851 C.3     1  UNL1        0.1149
     17 C         143.6290  142.1228  169.5847 C.3     1  UNL1        0.0718
     18 C         142.1613  142.3348  169.8098 C.ar    1  UNL1        0.1208
     19 N         141.5133  143.6112  170.2582 N.ar    1  UNL1       -0.2293
     20 C         140.0353  143.3728  170.3516 C.ar    1  UNL1        0.1188
     21 C         139.7698  141.9491  169.9610 C.ar    1  UNL1        0.0977
     22 N         141.0838  141.3076  169.6262 N.ar    1  UNL1       -0.3132
@<TRIPOS>BOND
     1    17    18    1
     2    18    19   ar
     3    19    20   ar
     4    20    21   ar
     5    21    22   ar
     6    22    16    1
     7     1    16    1
     8     1     2    1
     9     2     3    1
    10     3     4    1
    11     4     5   ar
    12     5     6   ar
    13     6     7   ar
    14     7     8   ar
    15     8     9   ar
    16     9    10   ar
    17    10    11   ar
    18    11    12   ar
    19    12    13    1
    20     5    14    1
    21    14    15    2
    22    22    18   ar
    23    14     1    1
    24    12     4   ar
    25    11     6   ar
@<TRIPOS>MOLECULE
*****
 22 25 0 0 0
SMALL
GASTEIGER

@<TRIPOS>ATOM
      1 C         140.0970  141.6920  166.8734 C.3     1  UNL1        0.0849
      2 C         140.3228  143.1152  166.4569 C.3     1  UNL1        0.0159
      3 C         140.0186  143.5426  165.0517 C.3     1  UNL1        0.0444
      4 C         139.4886  142.5468  164.0629 C.ar    1  UNL1        0.0398
      5 C         139.2629  141.1236  164.4794 C.ar    1  UNL1        0.0478
      6 C         138.7351  140.3717  163.2936 C.ar    1  UNL1        0.0196
      7 C         138.3330  138.9381  163.1119 C.ar    1  UNL1        0.0016
      8 C         137.8305  138.4630  161.7809 C.ar    1  UNL1        0.0001
      9 C         137.7301  139.4216  160.6315 C.ar    1  UNL1        0.0015
     10 C         138.1322  140.8552  160.8131 C.ar    1  UNL1        0.0172
     11 C         138.6347  141.3303  162.1442 C.ar    1  UNL1        0.0598
     12 N         139.1004  142.6745  162.6197 N.ar    1  UNL1       -0.3285
     13 C         139.1662  143.9267  161.7964 C.3     1  UNL1        0.1301
     14 C         139.5671  140.6962  165.8846 C.2     1  UNL1        0.1756
     15 O         139.3414  139.2729  166.3012 O.2     1  UNL1       -0.2912
     16 C         140.4012  141.2645  168.2787 C.3     1  UNL1        0.1149
     17 C         140.2669  144.0104  170.0369 C.3     1  UNL1        0.0718
     18 C         141.4809  143.1538  169.8310 C.ar    1  UNL1        0.1208
     19 N         142.8464  143.4090  170.3971 N.ar    1  UNL1       -0.2293
     20 C         143.7520  142.3045  169.9388 C.ar    1  UNL1        0.1188
     21 C         142.9463  141.3667  169.0895 C.ar    1  UNL1        0.0977
     22 N         141.5426  141.8917  169.0229 N.ar    1  UNL1       -0.3132
@<TRIPOS>BOND
     1    17    18    1
     2    18    19   ar
     3    19    20   ar
     4    20    21   ar
     5    21    22   ar
     6    22    16    1
     7     1    16    1
     8     1     2    1
     9     2     3    1
    10     3     4    1
    11     4     5   ar
    12     5     6   ar
    13     6     7   ar
    14     7     8   ar
    15     8     9   ar
    16     9    10   ar
    17    10    11   ar
    18    11    12   ar
    19    12    13    1
    20     5    14    1
    21    14    15    2
    22    22    18   ar
    23    14     1    1
    24    12     4   ar
    25    11     6   ar
@<TRIPOS>MOLECULE
*****
 22 25 0 0 0
SMALL
GASTEIGER

@<TRIPOS>ATOM
      1 C         142.7185  139.9916  164.7568 C.3     1  UNL1        0.0849
      2 C         143.3649  138.7467  165.2881 C.3     1  UNL1        0.0159
      3 C         143.3320  138.4537  166.7588 C.3     1  UNL1        0.0444
      4 C         142.6528  139.4057  167.6982 C.ar    1  UNL1        0.0398
      5 C         142.0065  140.6506  167.1669 C.ar    1  UNL1        0.0478
      6 C         141.4158  141.3972  168.3261 C.ar    1  UNL1        0.0196
      7 C         140.6582  142.6893  168.4066 C.ar    1  UNL1        0.0016
      8 C         140.1818  143.1978  169.7349 C.ar    1  UNL1        0.0001
      9 C         140.4630  142.4142  170.9827 C.ar    1  UNL1        0.0015
     10 C         141.2206  141.1222  170.9022 C.ar    1  UNL1        0.0172
     11 C         141.6970  140.6137  169.5739 C.ar    1  UNL1        0.0598
     12 N         142.4615  139.3828  169.1858 N.ar    1  UNL1       -0.3285
     13 C         142.9492  138.3164  170.1212 C.3     1  UNL1        0.1301
     14 C         142.0394  140.9436  165.6962 C.2     1  UNL1        0.1756
     15 O         141.3930  142.1887  165.1648 O.2     1  UNL1       -0.2912
     16 C         142.7514  140.2847  163.2860 C.3     1  UNL1        0.1149
     17 C         145.7315  141.5453  163.7093 C.3     1  UNL1        0.0718
     18 C         144.5896  142.2031  162.9930 C.ar    1  UNL1        0.1208
     19 N         144.6169  143.5559  162.3454 N.ar    1  UNL1       -0.2293
     20 C         143.2640  143.8125  161.7507 C.ar    1  UNL1        0.1188
     21 C         142.4005  142.6183  162.0306 C.ar    1  UNL1        0.0977
     22 N         143.2198  141.6237  162.7984 N.ar    1  UNL1       -0.3132
@<TRIPOS>BOND
     1    17    18    1
     2    18    19   ar
     3    19    20   ar
     4    20    21   ar
     5    21    22   ar
     6    22    16    1
     7     1    16    1
     8     1     2    1
     9     2     3    1
    10     3     4    1
    11     4     5   ar
    12     5     6   ar
    13     6     7   ar
    14     7     8   ar
    15     8     9   ar
    16     9    10   ar
    17    10    11   ar
    18    11    12   ar
    19    12    13    1
    20     5    14    1
    21    14    15    2
    22    22    18   ar
    23    14     1    1
    24    12     4   ar
    25    11     6   ar
@<TRIPOS>MOLECULE
*****
 22 25 0 0 0
SMALL
GASTEIGER

@<TRIPOS>ATOM
      1 C         140.7136  139.7488  167.8716 C.3     1  UNL1        0.0849
      2 C         139.2531  139.9268  167.5798 C.3     1  UNL1        0.0159
      3 C         138.7465  139.7868  166.1749 C.3     1  UNL1        0.0444
      4 C         139.7004  139.4687  165.0618 C.ar    1  UNL1        0.0398
      5 C         141.1610  139.2906  165.3537 C.ar    1  UNL1        0.0478
      6 C         141.8579  138.9841  164.0613 C.ar    1  UNL1        0.0196
      7 C         143.2972  138.7139  163.7367 C.ar    1  UNL1        0.0016
      8 C         143.7067  138.4322  162.3215 C.ar    1  UNL1        0.0001
      9 C         142.6770  138.4208  161.2308 C.ar    1  UNL1        0.0015
     10 C         141.2377  138.6910  161.5555 C.ar    1  UNL1        0.0172
     11 C         140.8282  138.9726  162.9707 C.ar    1  UNL1        0.0598
     12 N         139.4948  139.2721  163.5891 N.ar    1  UNL1       -0.3285
     13 C         138.1856  139.3597  162.8622 C.3     1  UNL1        0.1301
     14 C         141.6675  139.4307  166.7586 C.2     1  UNL1        0.1756
     15 O         143.1281  139.2527  167.0505 O.2     1  UNL1       -0.2912
     16 C         141.2202  139.8888  169.2766 C.3     1  UNL1        0.1149
     17 C         139.6622  142.5275  170.3989 C.3     1  UNL1        0.0718
     18 C         141.1461  142.3835  170.2338 C.ar    1  UNL1        0.1208
     19 N         142.1744  143.4270  170.5556 N.ar    1  UNL1       -0.2293
     20 C         143.5260  142.8591  170.2387 C.ar    1  UNL1        0.1188
     21 C         143.3331  141.4646  169.7209 C.ar    1  UNL1        0.0977
     22 N         141.8622  141.1706  169.7180 N.ar    1  UNL1       -0.3132
@<TRIPOS>BOND
     1    17    18    1
     2    18    19   ar
     3    19    20   ar
     4    20    21   ar
     5    21    22   ar
     6    22    16    1
     7     1    16    1
     8     1     2    1
     9     2     3    1
    10     3     4    1
    11     4     5   ar
    12     5     6   ar
    13     6     7   ar
    14     7     8   ar
    15     8     9   ar
    16     9    10   ar
    17    10    11   ar
    18    11    12   ar
    19    12    13    1
    20     5    14    1
    21    14    15    2
    22    22    18   ar
    23    14     1    1
    24    12     4   ar
    25    11     6   ar
@<TRIPOS>MOLECULE
*****
 22 25 0 0 0
SMALL
GASTEIGER

@<TRIPOS>ATOM
      1 C         142.8065  140.3708  167.0525 C.3     1  UNL1        0.0849
      2 C         142.9877  141.8596  167.0271 C.3     1  UNL1        0.0159
      3 C         143.3012  142.5550  165.7355 C.3     1  UNL1        0.0444
      4 C         143.4334  141.7616  164.4694 C.ar    1  UNL1        0.0398
      5 C         143.2522  140.2728  164.4948 C.ar    1  UNL1        0.0478
      6 C         143.4409  139.7589  163.0983 C.ar    1  UNL1        0.0196
      7 C         143.3800  138.3758  162.5209 C.ar    1  UNL1        0.0016
      8 C         143.6170  138.1640  161.0550 C.ar    1  UNL1        0.0001
      9 C         143.9148  139.3352  160.1665 C.ar    1  UNL1        0.0015
     10 C         143.9757  140.7182  160.7438 C.ar    1  UNL1        0.0172
     11 C         143.7388  140.9301  162.2097 C.ar    1  UNL1        0.0598
     12 N         143.7341  142.1678  163.0571 N.ar    1  UNL1       -0.3285
     13 C         143.9860  143.5662  162.5766 C.3     1  UNL1        0.1301
     14 C         142.9387  139.5774  165.7864 C.2     1  UNL1        0.1756
     15 O         142.7575  138.0885  165.8119 O.2     1  UNL1       -0.2912
     16 C         142.4930  139.6753  168.3441 C.3     1  UNL1        0.1149
     17 C         139.2440  139.9070  168.1440 C.3     1  UNL1        0.0718
     18 C         140.0988  140.4366  169.2570 C.ar    1  UNL1        0.1208
     19 N         139.6103  141.1657  170.4735 N.ar    1  UNL1       -0.2293
     20 C         140.8018  141.5098  171.3173 C.ar    1  UNL1        0.1188
     21 C         142.0267  140.9934  170.6223 C.ar    1  UNL1        0.0977
     22 N         141.5921  140.3301  169.3490 N.ar    1  UNL1       -0.3132
@<TRIPOS>BOND
     1    17    18    1
     2    18    19   ar
     3    19    20   ar
     4    20    21   ar
     5    21    22   ar
     6    22    16    1
     7     1    16    1
     8     1     2    1
     9     2     3    1
    10     3     4    1
    11     4     5   ar
    12     5     6   ar
    13     6     7   ar
    14     7     8   ar
    15     8     9   ar
    16     9    10   ar
    17    10    11   ar
    18    11    12   ar
    19    12    13    1
    20     5    14    1
    21    14    15    2
    22    22    18   ar
    23    14     1    1
    24    12     4   ar
    25    11     6   ar
@<TRIPOS>MOLECULE
*****
 22 25 0 0 0
SMALL
GASTEIGER

@<TRIPOS>ATOM
      1 C         141.7120  142.4298  164.6368 C.3     1  UNL1        0.0849
      2 C         143.0620  142.9689  165.0065 C.3     1  UNL1        0.0159
      3 C         143.5457  142.8729  166.4231 C.3     1  UNL1        0.0444
      4 C         142.6793  142.2377  167.4700 C.ar    1  UNL1        0.0398
      5 C         141.3292  141.6987  167.1003 C.ar    1  UNL1        0.0478
      6 C         140.7018  141.1306  168.3387 C.ar    1  UNL1        0.0196
      7 C         139.3786  140.4665  168.5794 C.ar    1  UNL1        0.0016
      8 C         139.0178  139.9903  169.9553 C.ar    1  UNL1        0.0001
      9 C         139.9801  140.1783  171.0904 C.ar    1  UNL1        0.0015
     10 C         141.3033  140.8424  170.8497 C.ar    1  UNL1        0.0172
     11 C         141.6642  141.3186  169.4739 C.ar    1  UNL1        0.0598
     12 N         142.8863  142.0028  168.9370 N.ar    1  UNL1       -0.3285
     13 C         144.1020  142.3851  169.7282 C.3     1  UNL1        0.1301
     14 C         140.8456  141.7947  165.6837 C.2     1  UNL1        0.1756
     15 O         139.4954  141.2556  165.3139 O.2     1  UNL1       -0.2912
     16 C         141.2282  142.5258  163.2201 C.3     1  UNL1        0.1149
     17 C         138.0389  142.6874  162.5480 C.3     1  UNL1        0.0718
     18 C         139.0182  143.8197  162.4538 C.ar    1  UNL1        0.1208
     19 N         138.7036  145.2250  162.0343 N.ar    1  UNL1       -0.2293
     20 C         139.9751  146.0192  162.0839 C.ar    1  UNL1        0.1188
     21 C         141.0756  145.1048  162.5341 C.ar    1  UNL1        0.0977
     22 N         140.4842  143.7454  162.7628 N.ar    1  UNL1       -0.3132
@<TRIPOS>BOND
     1    17    18    1
     2    18    19   ar
     3    19    20   ar
     4    20    21   ar
     5    21    22   ar
     6    22    16    1
     7     1    16    1
     8     1     2    1
     9     2     3    1
    10     3     4    1
    11     4     5   ar
    12     5     6   ar
    13     6     7   ar
    14     7     8   ar
    15     8     9   ar
    16     9    10   ar
    17    10    11   ar
    18    11    12   ar
    19    12    13    1
    20     5    14    1
    21    14    15    2
    22    22    18   ar
    23    14     1    1
    24    12     4   ar
    25    11     6   ar
@<TRIPOS>MOLECULE
*****
 22 25 0 0 0
SMALL
GASTEIGER

@<TRIPOS>ATOM
      1 C         140.6392  142.6348  166.3172 C.3     1  UNL1        0.0849
      2 C         139.6618  143.7648  166.1840 C.3     1  UNL1        0.0159
      3 C         139.5620  144.5218  164.8930 C.3     1  UNL1        0.0444
      4 C         140.4396  144.1488  163.7350 C.ar    1  UNL1        0.0398
      5 C         141.4170  143.0188  163.8682 C.ar    1  UNL1        0.0478
      6 C         142.1461  142.8805  162.5646 C.ar    1  UNL1        0.0196
      7 C         143.2216  141.9383  162.1113 C.ar    1  UNL1        0.0016
      8 C         143.7703  142.0408  160.7190 C.ar    1  UNL1        0.0001
      9 C         143.2435  143.0853  159.7802 C.ar    1  UNL1        0.0015
     10 C         142.1680  144.0274  160.2335 C.ar    1  UNL1        0.0172
     11 C         141.6193  143.9250  161.6258 C.ar    1  UNL1        0.0598
     12 N         140.5646  144.7088  162.3491 N.ar    1  UNL1       -0.3285
     13 C         139.7738  145.8521  161.7855 C.3     1  UNL1        0.1301
     14 C         141.5168  142.2618  165.1593 C.2     1  UNL1        0.1756
     15 O         142.4943  141.1317  165.2925 O.2     1  UNL1       -0.2912
     16 C         140.7391  141.8777  167.6084 C.3     1  UNL1        0.1149
     17 C         140.2871  144.0780  169.9757 C.3     1  UNL1        0.0718
     18 C         141.5422  143.2951  169.7276 C.ar    1  UNL1        0.1208
     19 N         142.8100  143.3860  170.5241 N.ar    1  UNL1       -0.2293
     20 C         143.8013  142.4309  169.9282 C.ar    1  UNL1        0.1188
     21 C         143.1462  141.7496  168.7635 C.ar    1  UNL1        0.0977
     22 N         141.7500  142.2837  168.6395 N.ar    1  UNL1       -0.3132
@<TRIPOS>BOND
     1    17    18    1
     2    18    19   ar
     3    19    20   ar
     4    20    21   ar
     5    21    22   ar
     6    22    16    1
     7     1    16    1
     8     1     2    1
     9     2     3    1
    10     3     4    1
    11     4     5   ar
    12     5     6   ar
    13     6     7   ar
    14     7     8   ar
    15     8     9   ar
    16     9    10   ar
    17    10    11   ar
    18    11    12   ar
    19    12    13    1
    20     5    14    1
    21    14    15    2
    22    22    18   ar
    23    14     1    1
    24    12     4   ar
    25    11     6   ar
