@<TRIPOS>MOLECULE
*****
 37 40 0 0 0
SMALL
GASTEIGER

@<TRIPOS>ATOM
      1 C         141.6932  141.6595  161.8754 C.3     1  UNL1        0.1031
      2 C         142.3044  140.0307  166.0255 C.ar    1  UNL1        0.0536
      3 C         141.0810  139.6529  165.2442 C.ar    1  UNL1        0.0042
      4 C         140.8773  140.1958  163.8608 C.ar    1  UNL1       -0.0025
      5 C         141.8969  141.1165  163.2588 C.ar    1  UNL1       -0.0036
      6 C         143.1204  141.4943  164.0401 C.ar    1  UNL1       -0.0025
      7 C         143.3241  140.9514  165.4234 C.ar    1  UNL1        0.0042
      8 N         141.7135  140.0389  168.5554 N.am    1  UNL1       -0.2761
      9 C         142.5082  139.4878  167.4089 C.2     1  UNL1        0.2490
     10 O         143.5066  138.3937  167.6457 O.2     1  UNL1       -0.2699
     11 C         143.0734  139.9709  170.7681 C.3     1  UNL1        0.0233
     12 C         141.9172  139.4959  169.9388 C.3     1  UNL1        0.0938
     13 C         140.7150  141.1330  168.3187 C.3     1  UNL1        0.0938
     14 C         140.9400  142.4940  168.9076 C.3     1  UNL1        0.0233
     15 C         141.1823  143.0570  161.6859 C.ar    1  UNL1       -0.0024
     16 C         141.1160  143.9961  162.8537 C.ar    1  UNL1       -0.0026
     17 C         140.6051  145.3936  162.6642 C.ar    1  UNL1        0.0010
     18 C         140.1606  145.8521  161.3069 C.ar    1  UNL1        0.0147
     19 C         140.2269  144.9130  160.1391 C.ar    1  UNL1        0.0500
     20 C         140.7377  143.5154  160.3286 C.ar    1  UNL1        0.0120
     21 N         139.7823  145.3714  158.7819 N.am    1  UNL1       -0.2839
     22 C         140.7889  145.8917  157.7990 C.2     1  UNL1        0.2256
     23 O         142.2401  145.9536  158.1734 O.2     1  UNL1       -0.2748
     24 H         138.8298  145.3308  158.5361 H       1  UNL1        0.1549
     25 C         140.3443  146.3501  156.4417 C.3     1  UNL1        0.0768
     26 C         140.6220  146.5434  154.9804 C.3     1  UNL1        0.0096
     27 C         139.2965  146.9509  155.5522 C.3     1  UNL1        0.0096
     28 N         142.0003  140.8049  160.6815 N.3     1  UNL1       -0.2644
     29 C         143.3642  140.8487  160.0587 C.3     1  UNL1        0.0901
     30 C         143.6713  139.9941  158.8648 C.3     1  UNL1        0.0897
     31 N         142.6146  139.0957  158.2937 N.3     1  UNL1       -0.2682
     32 C         141.2507  139.0519  158.9166 C.3     1  UNL1        0.0897
     33 C         140.9435  139.9065  160.1104 C.3     1  UNL1        0.0901
     34 C         142.9217  138.2411  157.0998 C.3     1  UNL1        0.1046
     35 C         142.7551  136.7525  157.1802 C.3     1  UNL1        0.1595
     36 O         143.6656  135.8526  156.3986 O.3     1  UNL1       -0.3496
     37 C         143.7402  134.3913  156.7287 C.3     1  UNL1        0.1742
@<TRIPOS>BOND
     1    11    12    1
     2    12     8    1
     3     8    13    1
     4    13    14    1
     5     8     9   am
     6     9    10    2
     7     9     2    1
     8     2     3   ar
     9     3     4   ar
    10     4     5   ar
    11     5     1    1
    12     1    15    1
    13    15    16   ar
    14    16    17   ar
    15    17    18   ar
    16    18    19   ar
    17    19    21    1
    18    21    22   am
    19    22    23    2
    20    22    25    1
    21    25    26    1
    22    26    27    1
    23    19    20   ar
    24     1    28    1
    25    28    29    1
    26    29    30    1
    27    30    31    1
    28    31    34    1
    29    34    35    1
    30    35    36    1
    31    36    37    1
    32    31    32    1
    33    32    33    1
    34     5     6   ar
    35     6     7   ar
    36     7     2   ar
    37    20    15   ar
    38    33    28    1
    39    27    25    1
    40    21    24    1
@<TRIPOS>MOLECULE
*****
 37 40 0 0 0
SMALL
GASTEIGER

@<TRIPOS>ATOM
      1 C         140.8118  141.3006  164.0926 C.3     1  UNL1        0.1031
      2 C         142.1980  138.5526  160.8097 C.ar    1  UNL1        0.0536
      3 C         143.0576  139.7058  161.2355 C.ar    1  UNL1        0.0042
      4 C         142.5955  140.6217  162.3298 C.ar    1  UNL1       -0.0025
      5 C         141.2739  140.3846  162.9983 C.ar    1  UNL1       -0.0036
      6 C         140.4143  139.2315  162.5725 C.ar    1  UNL1       -0.0025
      7 C         140.8764  138.3155  161.4782 C.ar    1  UNL1        0.0042
      8 N         142.2325  137.8846  158.2992 N.am    1  UNL1       -0.2761
      9 C         142.6601  137.6366  159.7154 C.2     1  UNL1        0.2490
     10 O         143.5497  136.4727  160.0373 O.2     1  UNL1       -0.2699
     11 C         141.6897  136.2505  156.3537 C.3     1  UNL1        0.0233
     12 C         142.6946  136.9686  157.2050 C.3     1  UNL1        0.0938
     13 C         141.3428  139.0486  157.9773 C.3     1  UNL1        0.0938
     14 C         139.8526  138.8782  157.9847 C.3     1  UNL1        0.0233
     15 C         140.2501  142.6496  163.7542 C.ar    1  UNL1       -0.0024
     16 C         139.7299  143.5402  164.8435 C.ar    1  UNL1       -0.0026
     17 C         139.1683  144.8893  164.5051 C.ar    1  UNL1        0.0010
     18 C         139.1268  145.3479  163.0775 C.ar    1  UNL1        0.0147
     19 C         139.6470  144.4574  161.9883 C.ar    1  UNL1        0.0500
     20 C         140.2086  143.1082  162.3266 C.ar    1  UNL1        0.0120
     21 N         139.6055  144.9160  160.5607 N.am    1  UNL1       -0.2839
     22 C         140.8825  145.1151  159.7996 C.2     1  UNL1        0.2256
     23 O         142.2011  144.8557  160.4659 O.2     1  UNL1       -0.2748
     24 H         138.7401  145.0863  160.1234 H       1  UNL1        0.1549
     25 C         140.8410  145.5737  158.3720 C.3     1  UNL1        0.0768
     26 C         140.1142  146.2423  157.2430 C.3     1  UNL1        0.0096
     27 C         141.4960  145.6995  157.0284 C.3     1  UNL1        0.0096
     28 N         140.9113  140.8675  165.5252 N.3     1  UNL1       -0.2644
     29 C         139.7116  140.2962  166.2211 C.3     1  UNL1        0.0901
     30 C         139.8112  139.8631  167.6539 C.3     1  UNL1        0.0897
     31 N         141.1105  140.0013  168.3905 N.3     1  UNL1       -0.2682
     32 C         142.3102  140.5726  167.6946 C.3     1  UNL1        0.0897
     33 C         142.2107  141.0057  166.2620 C.3     1  UNL1        0.0901
     34 C         141.2101  139.5682  169.8233 C.3     1  UNL1        0.1046
     35 C         140.2739  140.1399  170.8464 C.3     1  UNL1        0.1595
     36 O         140.6741  141.3512  171.6353 O.3     1  UNL1       -0.3496
     37 C         141.8552  142.1698  171.2053 C.3     1  UNL1        0.1742
@<TRIPOS>BOND
     1    11    12    1
     2    12     8    1
     3     8    13    1
     4    13    14    1
     5     8     9   am
     6     9    10    2
     7     9     2    1
     8     2     3   ar
     9     3     4   ar
    10     4     5   ar
    11     5     1    1
    12     1    15    1
    13    15    16   ar
    14    16    17   ar
    15    17    18   ar
    16    18    19   ar
    17    19    21    1
    18    21    22   am
    19    22    23    2
    20    22    25    1
    21    25    26    1
    22    26    27    1
    23    19    20   ar
    24     1    28    1
    25    28    29    1
    26    29    30    1
    27    30    31    1
    28    31    34    1
    29    34    35    1
    30    35    36    1
    31    36    37    1
    32    31    32    1
    33    32    33    1
    34     5     6   ar
    35     6     7   ar
    36     7     2   ar
    37    20    15   ar
    38    33    28    1
    39    27    25    1
    40    21    24    1
@<TRIPOS>MOLECULE
*****
 37 40 0 0 0
SMALL
GASTEIGER

@<TRIPOS>ATOM
      1 C         140.0752  139.5705  158.5984 C.3     1  UNL1        0.1031
      2 C         139.2114  143.4450  156.4789 C.ar    1  UNL1        0.0536
      3 C         138.1613  142.8128  157.3435 C.ar    1  UNL1        0.0042
      4 C         138.4492  141.5213  158.0500 C.ar    1  UNL1       -0.0025
      5 C         139.7872  140.8620  157.8919 C.ar    1  UNL1       -0.0036
      6 C         140.8373  141.4943  157.0274 C.ar    1  UNL1       -0.0025
      7 C         140.5494  142.7858  156.3209 C.ar    1  UNL1        0.0042
      8 N         139.4775  146.0237  156.3073 N.am    1  UNL1       -0.2761
      9 C         138.9235  144.7365  155.7724 C.2     1  UNL1        0.2490
     10 O         138.0815  144.7408  154.5311 O.2     1  UNL1       -0.2699
     11 C         140.0021  147.7128  154.4042 C.3     1  UNL1        0.0233
     12 C         139.1896  147.3152  155.6008 C.3     1  UNL1        0.0938
     13 C         140.3195  146.0195  157.5487 C.3     1  UNL1        0.0938
     14 C         141.8156  146.0111  157.4402 C.3     1  UNL1        0.0233
     15 C         139.7279  139.4158  160.0494 C.ar    1  UNL1       -0.0024
     16 C         139.3061  138.0781  160.5812 C.ar    1  UNL1       -0.0026
     17 C         138.9589  137.9234  162.0322 C.ar    1  UNL1        0.0010
     18 C         139.0334  139.1063  162.9515 C.ar    1  UNL1        0.0147
     19 C         139.4552  140.4439  162.4198 C.ar    1  UNL1        0.0500
     20 C         139.8025  140.5987  160.9687 C.ar    1  UNL1        0.0120
     21 N         139.5298  141.6268  163.3391 N.am    1  UNL1       -0.2839
     22 C         138.2867  142.3973  163.6723 C.2     1  UNL1        0.2256
     23 O         136.9690  141.9849  163.0861 O.2     1  UNL1       -0.2748
     24 H         140.3947  141.8975  163.7239 H       1  UNL1        0.1549
     25 C         138.3613  143.5802  164.5916 C.3     1  UNL1        0.0768
     26 C         137.6795  144.6727  165.3608 C.3     1  UNL1        0.0096
     27 C         139.1723  144.5366  165.4148 C.3     1  UNL1        0.0096
     28 N         140.7103  138.4338  157.8539 N.3     1  UNL1       -0.2644
     29 C         139.9431  137.7171  156.7826 C.3     1  UNL1        0.0901
     30 C         140.5783  136.5803  156.0381 C.3     1  UNL1        0.0897
     31 N         141.9807  136.1602  156.3649 N.3     1  UNL1       -0.2682
     32 C         142.7479  136.8769  157.4363 C.3     1  UNL1        0.0897
     33 C         142.1127  138.0136  158.1808 C.3     1  UNL1        0.0901
     34 C         142.6159  135.0234  155.6204 C.3     1  UNL1        0.1046
     35 C         142.2568  133.6081  155.9639 C.3     1  UNL1        0.1595
     36 O         142.7781  132.9873  157.2259 O.3     1  UNL1       -0.3496
     37 C         144.1596  133.3164  157.7086 C.3     1  UNL1        0.1742
@<TRIPOS>BOND
     1    11    12    1
     2    12     8    1
     3     8    13    1
     4    13    14    1
     5     8     9   am
     6     9    10    2
     7     9     2    1
     8     2     3   ar
     9     3     4   ar
    10     4     5   ar
    11     5     1    1
    12     1    15    1
    13    15    16   ar
    14    16    17   ar
    15    17    18   ar
    16    18    19   ar
    17    19    21    1
    18    21    22   am
    19    22    23    2
    20    22    25    1
    21    25    26    1
    22    26    27    1
    23    19    20   ar
    24     1    28    1
    25    28    29    1
    26    29    30    1
    27    30    31    1
    28    31    34    1
    29    34    35    1
    30    35    36    1
    31    36    37    1
    32    31    32    1
    33    32    33    1
    34     5     6   ar
    35     6     7   ar
    36     7     2   ar
    37    20    15   ar
    38    33    28    1
    39    27    25    1
    40    21    24    1
@<TRIPOS>MOLECULE
*****
 37 40 0 0 0
SMALL
GASTEIGER

@<TRIPOS>ATOM
      1 C         140.2815  139.2805  158.0156 C.3     1  UNL1        0.1031
      2 C         140.4081  139.6614  162.4977 C.ar    1  UNL1        0.0536
      3 C         139.8374  138.4265  161.8658 C.ar    1  UNL1        0.0042
      4 C         139.7951  138.2996  160.3717 C.ar    1  UNL1       -0.0025
      5 C         140.3237  139.4074  159.5097 C.ar    1  UNL1       -0.0036
      6 C         140.8944  140.6423  160.1416 C.ar    1  UNL1       -0.0025
      7 C         140.9366  140.7693  161.6356 C.ar    1  UNL1        0.0042
      8 N         139.2678  140.3405  164.7312 N.am    1  UNL1       -0.2761
      9 C         140.4503  139.7884  163.9917 C.2     1  UNL1        0.2490
     10 O         141.6750  139.3632  164.7463 O.2     1  UNL1       -0.2699
     11 C         138.7437  139.3779  167.0868 C.3     1  UNL1        0.0233
     12 C         139.3100  140.4674  166.2252 C.3     1  UNL1        0.0938
     13 C         138.0431  140.7657  163.9767 C.3     1  UNL1        0.0938
     14 C         137.6758  142.2179  163.9002 C.3     1  UNL1        0.0233
     15 C         139.6210  140.3451  157.1908 C.ar    1  UNL1       -0.0024
     16 C         140.4534  141.2646  156.3472 C.ar    1  UNL1       -0.0026
     17 C         139.7930  142.3292  155.5223 C.ar    1  UNL1        0.0010
     18 C         138.3001  142.4744  155.5411 C.ar    1  UNL1        0.0147
     19 C         137.4677  141.5549  156.3847 C.ar    1  UNL1        0.0500
     20 C         138.1282  140.4902  157.2096 C.ar    1  UNL1        0.0120
     21 N         135.9749  141.7001  156.4035 N.am    1  UNL1       -0.2839
     22 C         135.1072  140.5940  155.8805 C.2     1  UNL1        0.2256
     23 O         135.7323  139.3426  155.3388 O.2     1  UNL1       -0.2748
     24 H         135.5646  142.5214  156.7590 H       1  UNL1        0.1549
     25 C         133.6143  140.7391  155.8993 C.3     1  UNL1        0.0768
     26 C         132.3681  141.4105  155.4031 C.3     1  UNL1        0.0096
     27 C         132.2749  140.3193  156.4281 C.3     1  UNL1        0.0096
     28 N         140.8997  138.0889  157.3464 N.3     1  UNL1       -0.2644
     29 C         142.2837  137.6508  157.7241 C.3     1  UNL1        0.0901
     30 C         142.9019  136.4591  157.0548 C.3     1  UNL1        0.0897
     31 N         142.1362  135.7057  156.0080 N.3     1  UNL1       -0.2682
     32 C         140.7522  136.1438  155.6304 C.3     1  UNL1        0.0897
     33 C         140.1339  137.3354  156.2996 C.3     1  UNL1        0.0901
     34 C         142.7544  134.5140  155.3387 C.3     1  UNL1        0.1046
     35 C         142.4382  133.1315  155.8273 C.3     1  UNL1        0.1595
     36 O         142.8354  132.7166  157.2129 O.3     1  UNL1       -0.3496
     37 C         144.1870  133.0866  157.7481 C.3     1  UNL1        0.1742
@<TRIPOS>BOND
     1    11    12    1
     2    12     8    1
     3     8    13    1
     4    13    14    1
     5     8     9   am
     6     9    10    2
     7     9     2    1
     8     2     3   ar
     9     3     4   ar
    10     4     5   ar
    11     5     1    1
    12     1    15    1
    13    15    16   ar
    14    16    17   ar
    15    17    18   ar
    16    18    19   ar
    17    19    21    1
    18    21    22   am
    19    22    23    2
    20    22    25    1
    21    25    26    1
    22    26    27    1
    23    19    20   ar
    24     1    28    1
    25    28    29    1
    26    29    30    1
    27    30    31    1
    28    31    34    1
    29    34    35    1
    30    35    36    1
    31    36    37    1
    32    31    32    1
    33    32    33    1
    34     5     6   ar
    35     6     7   ar
    36     7     2   ar
    37    20    15   ar
    38    33    28    1
    39    27    25    1
    40    21    24    1
@<TRIPOS>MOLECULE
*****
 37 40 0 0 0
SMALL
GASTEIGER

@<TRIPOS>ATOM
      1 C         141.7127  139.0238  158.5693 C.3     1  UNL1        0.1031
      2 C         140.0592  138.5931  162.7323 C.ar    1  UNL1        0.0536
      3 C         139.1971  138.2763  161.5464 C.ar    1  UNL1        0.0042
      4 C         139.7483  138.4199  160.1588 C.ar    1  UNL1       -0.0025
      5 C         141.1615  138.8802  159.9570 C.ar    1  UNL1       -0.0036
      6 C         142.0236  139.1970  161.1429 C.ar    1  UNL1       -0.0025
      7 C         141.4725  139.0534  162.5306 C.ar    1  UNL1        0.0042
      8 N         138.8017  139.6024  164.7694 N.am    1  UNL1       -0.2761
      9 C         139.5080  138.4495  164.1200 C.2     1  UNL1        0.2490
     10 O         139.6632  137.1530  164.8582 O.2     1  UNL1       -0.2699
     11 C         139.1369  139.6939  167.3442 C.3     1  UNL1        0.0233
     12 C         138.2505  139.4589  166.1571 C.3     1  UNL1        0.0938
     13 C         138.6465  140.8990  164.0312 C.3     1  UNL1        0.0938
     14 C         137.4046  141.1634  163.2327 C.3     1  UNL1        0.0233
     15 C         142.2794  140.3378  158.1197 C.ar    1  UNL1       -0.0024
     16 C         141.3897  141.5406  158.0112 C.ar    1  UNL1       -0.0026
     17 C         141.9565  142.8546  157.5615 C.ar    1  UNL1        0.0010
     18 C         143.4129  142.9658  157.2203 C.ar    1  UNL1        0.0147
     19 C         144.3026  141.7631  157.3288 C.ar    1  UNL1        0.0500
     20 C         143.7359  140.4490  157.7785 C.ar    1  UNL1        0.0120
     21 N         145.7590  141.8743  156.9876 N.am    1  UNL1       -0.2839
     22 C         146.2092  141.7280  155.5642 C.2     1  UNL1        0.2256
     23 O         145.2029  141.4705  154.4820 O.2     1  UNL1       -0.2748
     24 H         146.4195  142.0433  157.6978 H       1  UNL1        0.1549
     25 C         147.6656  141.8393  155.2230 C.3     1  UNL1        0.0768
     26 C         149.1059  141.7574  155.6337 C.3     1  UNL1        0.0096
     27 C         148.7478  142.1138  154.2214 C.3     1  UNL1        0.0096
     28 N         141.6971  137.8534  157.6313 N.3     1  UNL1       -0.2644
     29 C         142.8118  136.8503  157.6651 C.3     1  UNL1        0.0901
     30 C         142.7962  135.6798  156.7271 C.3     1  UNL1        0.0897
     31 N         141.6659  135.5126  155.7553 N.3     1  UNL1       -0.2682
     32 C         140.5512  136.5157  155.7215 C.3     1  UNL1        0.0897
     33 C         140.5668  137.6861  156.6594 C.3     1  UNL1        0.0901
     34 C         141.6503  134.3421  154.8172 C.3     1  UNL1        0.1046
     35 C         141.3101  132.9743  155.3303 C.3     1  UNL1        0.1595
     36 O         142.1165  132.3676  156.4400 O.3     1  UNL1       -0.3496
     37 C         143.5061  131.8702  156.1722 C.3     1  UNL1        0.1742
@<TRIPOS>BOND
     1    11    12    1
     2    12     8    1
     3     8    13    1
     4    13    14    1
     5     8     9   am
     6     9    10    2
     7     9     2    1
     8     2     3   ar
     9     3     4   ar
    10     4     5   ar
    11     5     1    1
    12     1    15    1
    13    15    16   ar
    14    16    17   ar
    15    17    18   ar
    16    18    19   ar
    17    19    21    1
    18    21    22   am
    19    22    23    2
    20    22    25    1
    21    25    26    1
    22    26    27    1
    23    19    20   ar
    24     1    28    1
    25    28    29    1
    26    29    30    1
    27    30    31    1
    28    31    34    1
    29    34    35    1
    30    35    36    1
    31    36    37    1
    32    31    32    1
    33    32    33    1
    34     5     6   ar
    35     6     7   ar
    36     7     2   ar
    37    20    15   ar
    38    33    28    1
    39    27    25    1
    40    21    24    1
@<TRIPOS>MOLECULE
*****
 37 40 0 0 0
SMALL
GASTEIGER

@<TRIPOS>ATOM
      1 C         139.5844  139.8837  157.9390 C.3     1  UNL1        0.1031
      2 C         138.6726  140.2999  162.3259 C.ar    1  UNL1        0.0536
      3 C         139.9048  140.9345  161.7525 C.ar    1  UNL1        0.0042
      4 C         140.2088  140.7958  160.2902 C.ar    1  UNL1       -0.0025
      5 C         139.2805  140.0225  159.4013 C.ar    1  UNL1       -0.0036
      6 C         138.0483  139.3879  159.9747 C.ar    1  UNL1       -0.0025
      7 C         137.7443  139.5266  161.4370 C.ar    1  UNL1        0.0042
      8 N         138.5267  139.2598  164.7022 N.am    1  UNL1       -0.2761
      9 C         138.3687  140.4386  163.7883 C.2     1  UNL1        0.2490
     10 O         137.9067  141.7561  164.3366 O.2     1  UNL1       -0.2699
     11 C         137.6078  138.2541  166.9146 C.3     1  UNL1        0.0233
     12 C         138.2228  139.3985  166.1646 C.3     1  UNL1        0.0938
     13 C         138.9887  137.9422  164.1539 C.3     1  UNL1        0.0938
     14 C         140.4407  137.5713  164.2167 C.3     1  UNL1        0.0233
     15 C         138.8523  140.7269  156.9375 C.ar    1  UNL1       -0.0024
     16 C         139.6157  141.4682  155.8802 C.ar    1  UNL1       -0.0026
     17 C         138.8836  142.3114  154.8787 C.ar    1  UNL1        0.0010
     18 C         137.3881  142.4134  154.9345 C.ar    1  UNL1        0.0147
     19 C         136.6247  141.6721  155.9917 C.ar    1  UNL1        0.0500
     20 C         137.3568  140.8289  156.9933 C.ar    1  UNL1        0.0120
     21 N         135.1292  141.7741  156.0475 N.am    1  UNL1       -0.2839
     22 C         134.2865  140.5462  155.8683 C.2     1  UNL1        0.2256
     23 O         134.9394  139.2163  155.6333 O.2     1  UNL1       -0.2748
     24 H         134.7007  142.6470  156.2017 H       1  UNL1        0.1549
     25 C         132.7911  140.6482  155.9241 C.3     1  UNL1        0.0768
     26 C         131.4661  140.0903  156.3519 C.3     1  UNL1        0.0096
     27 C         131.5259  141.3827  155.5929 C.3     1  UNL1        0.0096
     28 N         140.6205  138.9019  157.4781 N.3     1  UNL1       -0.2644
     29 C         140.1999  137.5773  156.9136 C.3     1  UNL1        0.0901
     30 C         141.2361  136.5954  156.4527 C.3     1  UNL1        0.0897
     31 N         142.6927  136.9381  156.5564 N.3     1  UNL1       -0.2682
     32 C         143.1133  138.2626  157.1210 C.3     1  UNL1        0.0897
     33 C         142.0772  139.2445  157.5818 C.3     1  UNL1        0.0901
     34 C         143.7288  135.9562  156.0956 C.3     1  UNL1        0.1046
     35 C         143.5804  134.4999  156.4233 C.3     1  UNL1        0.1595
     36 O         143.9746  133.9922  157.7785 O.3     1  UNL1       -0.3496
     37 C         144.7767  132.7308  157.9028 C.3     1  UNL1        0.1742
@<TRIPOS>BOND
     1    11    12    1
     2    12     8    1
     3     8    13    1
     4    13    14    1
     5     8     9   am
     6     9    10    2
     7     9     2    1
     8     2     3   ar
     9     3     4   ar
    10     4     5   ar
    11     5     1    1
    12     1    15    1
    13    15    16   ar
    14    16    17   ar
    15    17    18   ar
    16    18    19   ar
    17    19    21    1
    18    21    22   am
    19    22    23    2
    20    22    25    1
    21    25    26    1
    22    26    27    1
    23    19    20   ar
    24     1    28    1
    25    28    29    1
    26    29    30    1
    27    30    31    1
    28    31    34    1
    29    34    35    1
    30    35    36    1
    31    36    37    1
    32    31    32    1
    33    32    33    1
    34     5     6   ar
    35     6     7   ar
    36     7     2   ar
    37    20    15   ar
    38    33    28    1
    39    27    25    1
    40    21    24    1
@<TRIPOS>MOLECULE
*****
 37 40 0 0 0
SMALL
GASTEIGER

@<TRIPOS>ATOM
      1 C         140.6408  141.6295  161.8363 C.3     1  UNL1        0.1031
      2 C         139.5829  140.4271  166.0416 C.ar    1  UNL1        0.0536
      3 C         140.9992  140.3100  165.5619 C.ar    1  UNL1        0.0042
      4 C         141.3519  140.7108  164.1601 C.ar    1  UNL1       -0.0025
      5 C         140.2882  141.2287  163.2381 C.ar    1  UNL1       -0.0036
      6 C         138.8718  141.3458  163.7178 C.ar    1  UNL1       -0.0025
      7 C         138.5192  140.9450  165.1196 C.ar    1  UNL1        0.0042
      8 N         139.7346  140.8326  168.6034 N.am    1  UNL1       -0.2761
      9 C         139.2302  140.0263  167.4434 C.2     1  UNL1        0.2490
     10 O         138.3732  138.8193  167.6852 O.2     1  UNL1       -0.2699
     11 C         140.4626  140.0295  170.9646 C.3     1  UNL1        0.0233
     12 C         139.3819  140.4318  170.0051 C.3     1  UNL1        0.0938
     13 C         140.5916  142.0397  168.3616 C.3     1  UNL1        0.0938
     14 C         140.3682  143.2901  169.1594 C.3     1  UNL1        0.0233
     15 C         140.4935  143.0586  161.4053 C.ar    1  UNL1       -0.0024
     16 C         140.4516  144.1512  162.4323 C.ar    1  UNL1       -0.0026
     17 C         140.3043  145.5804  162.0013 C.ar    1  UNL1        0.0010
     18 C         140.1989  145.9170  160.5434 C.ar    1  UNL1        0.0147
     19 C         140.2408  144.8246  159.5164 C.ar    1  UNL1        0.0500
     20 C         140.3881  143.3953  159.9474 C.ar    1  UNL1        0.0120
     21 N         140.1354  145.1612  158.0585 N.am    1  UNL1       -0.2839
     22 C         141.3765  145.2799  157.2245 C.2     1  UNL1        0.2256
     23 O         142.7231  145.0620  157.8485 O.2     1  UNL1       -0.2748
     24 H         139.2516  145.3042  157.6490 H       1  UNL1        0.1549
     25 C         141.2711  145.6166  155.7666 C.3     1  UNL1        0.0768
     26 C         140.5478  146.2891  154.6377 C.3     1  UNL1        0.0096
     27 C         141.8119  145.5272  154.3704 C.3     1  UNL1        0.0096
     28 N         141.1408  140.6012  160.8655 N.3     1  UNL1       -0.2644
     29 C         140.1666  139.7446  160.1123 C.3     1  UNL1        0.0901
     30 C         140.6666  138.7162  159.1414 C.3     1  UNL1        0.0897
     31 N         142.1407  138.5444  158.9238 N.3     1  UNL1       -0.2682
     32 C         143.1149  139.4009  159.6770 C.3     1  UNL1        0.0897
     33 C         142.6150  140.4293  160.6478 C.3     1  UNL1        0.0901
     34 C         142.6407  137.5160  157.9530 C.3     1  UNL1        0.1046
     35 C         143.1443  137.9395  156.6050 C.3     1  UNL1        0.1595
     36 O         144.2215  137.1482  155.9242 O.3     1  UNL1       -0.3496
     37 C         144.0060  135.6954  155.6192 C.3     1  UNL1        0.1742
@<TRIPOS>BOND
     1    11    12    1
     2    12     8    1
     3     8    13    1
     4    13    14    1
     5     8     9   am
     6     9    10    2
     7     9     2    1
     8     2     3   ar
     9     3     4   ar
    10     4     5   ar
    11     5     1    1
    12     1    15    1
    13    15    16   ar
    14    16    17   ar
    15    17    18   ar
    16    18    19   ar
    17    19    21    1
    18    21    22   am
    19    22    23    2
    20    22    25    1
    21    25    26    1
    22    26    27    1
    23    19    20   ar
    24     1    28    1
    25    28    29    1
    26    29    30    1
    27    30    31    1
    28    31    34    1
    29    34    35    1
    30    35    36    1
    31    36    37    1
    32    31    32    1
    33    32    33    1
    34     5     6   ar
    35     6     7   ar
    36     7     2   ar
    37    20    15   ar
    38    33    28    1
    39    27    25    1
    40    21    24    1
@<TRIPOS>MOLECULE
*****
 37 40 0 0 0
SMALL
GASTEIGER

@<TRIPOS>ATOM
      1 C         139.9947  139.0499  157.8695 C.3     1  UNL1        0.1031
      2 C         139.9099  139.0642  162.3687 C.ar    1  UNL1        0.0536
      3 C         139.0453  138.1052  161.6053 C.ar    1  UNL1        0.0042
      4 C         139.0736  138.1005  160.1055 C.ar    1  UNL1       -0.0025
      5 C         139.9665  139.0547  159.3692 C.ar    1  UNL1       -0.0036
      6 C         140.8311  140.0136  160.1326 C.ar    1  UNL1       -0.0025
      7 C         140.8028  140.0184  161.6323 C.ar    1  UNL1        0.0042
      8 N         138.8933  139.9302  164.5972 N.am    1  UNL1       -0.2761
      9 C         139.8816  139.0689  163.8684 C.2     1  UNL1        0.2490
     10 O         140.8418  138.2123  164.6393 O.2     1  UNL1       -0.2699
     11 C         138.0884  138.8856  166.8357 C.3     1  UNL1        0.0233
     12 C         138.8650  139.9350  166.0969 C.3     1  UNL1        0.0938
     13 C         137.9331  140.7869  163.8262 C.3     1  UNL1        0.0938
     14 C         137.7358  142.2237  164.2092 C.3     1  UNL1        0.0233
     15 C         141.1369  138.4037  157.1429 C.ar    1  UNL1       -0.0024
     16 C         142.3136  139.2279  156.7113 C.ar    1  UNL1       -0.0026
     17 C         143.4557  138.5817  155.9848 C.ar    1  UNL1        0.0010
     18 C         143.4212  137.1114  155.6897 C.ar    1  UNL1        0.0147
     19 C         142.2445  136.2873  156.1213 C.ar    1  UNL1        0.0500
     20 C         141.1023  136.9334  156.8479 C.ar    1  UNL1        0.0120
     21 N         142.2100  134.8170  155.8263 N.am    1  UNL1       -0.2839
     22 C         142.8268  133.8445  156.7874 C.2     1  UNL1        0.2256
     23 O         143.4782  134.3423  158.0436 O.2     1  UNL1       -0.2748
     24 H         141.7825  134.4902  155.0018 H       1  UNL1        0.1549
     25 C         142.7923  132.3742  156.4924 C.3     1  UNL1        0.0768
     26 C         143.1402  130.9649  156.8704 C.3     1  UNL1        0.0096
     27 C         142.3846  131.2369  155.6034 C.3     1  UNL1        0.0096
     28 N         138.8809  139.6914  157.0963 N.3     1  UNL1       -0.2644
     29 C         138.6558  139.3229  155.6598 C.3     1  UNL1        0.0901
     30 C         137.5419  139.9644  154.8866 C.3     1  UNL1        0.0897
     31 N         136.6531  140.9743  155.5500 N.3     1  UNL1       -0.2682
     32 C         136.8782  141.3428  156.9865 C.3     1  UNL1        0.0897
     33 C         137.9920  140.7013  157.7597 C.3     1  UNL1        0.0901
     34 C         135.5391  141.6158  154.7768 C.3     1  UNL1        0.1046
     35 C         134.1895  140.9632  154.7248 C.3     1  UNL1        0.1595
     36 O         133.2859  141.0129  155.9210 O.3     1  UNL1       -0.3496
     37 C         133.2197  139.8450  156.8599 C.3     1  UNL1        0.1742
@<TRIPOS>BOND
     1    11    12    1
     2    12     8    1
     3     8    13    1
     4    13    14    1
     5     8     9   am
     6     9    10    2
     7     9     2    1
     8     2     3   ar
     9     3     4   ar
    10     4     5   ar
    11     5     1    1
    12     1    15    1
    13    15    16   ar
    14    16    17   ar
    15    17    18   ar
    16    18    19   ar
    17    19    21    1
    18    21    22   am
    19    22    23    2
    20    22    25    1
    21    25    26    1
    22    26    27    1
    23    19    20   ar
    24     1    28    1
    25    28    29    1
    26    29    30    1
    27    30    31    1
    28    31    34    1
    29    34    35    1
    30    35    36    1
    31    36    37    1
    32    31    32    1
    33    32    33    1
    34     5     6   ar
    35     6     7   ar
    36     7     2   ar
    37    20    15   ar
    38    33    28    1
    39    27    25    1
    40    21    24    1
@<TRIPOS>MOLECULE
*****
 37 40 0 0 0
SMALL
GASTEIGER

@<TRIPOS>ATOM
      1 C         141.5280  139.1557  158.0360 C.3     1  UNL1        0.1031
      2 C         139.4624  139.4137  162.0256 C.ar    1  UNL1        0.0536
      3 C         140.7735  140.1107  161.8133 C.ar    1  UNL1        0.0042
      4 C         141.4620  140.0247  160.4835 C.ar    1  UNL1       -0.0025
      5 C         140.8394  139.2417  159.3658 C.ar    1  UNL1       -0.0036
      6 C         139.5283  138.5446  159.5781 C.ar    1  UNL1       -0.0025
      7 C         138.8398  138.6306  160.9079 C.ar    1  UNL1        0.0042
      8 N         139.1149  138.5225  164.4411 N.am    1  UNL1       -0.2761
      9 C         138.7739  139.4997  163.3554 C.2     1  UNL1        0.2490
     10 O         137.7444  140.5629  163.5996 O.2     1  UNL1       -0.2699
     11 C         138.9469  139.5389  166.8263 C.3     1  UNL1        0.0233
     12 C         138.4264  138.6085  165.7710 C.3     1  UNL1        0.0938
     13 C         140.1444  137.4592  164.1970 C.3     1  UNL1        0.0938
     14 C         141.5525  137.6548  164.6754 C.3     1  UNL1        0.0233
     15 C         142.0760  140.3954  157.3936 C.ar    1  UNL1       -0.0024
     16 C         141.2843  141.6691  157.4248 C.ar    1  UNL1       -0.0026
     17 C         141.8324  142.9088  156.7825 C.ar    1  UNL1        0.0010
     18 C         143.1722  142.8749  156.1089 C.ar    1  UNL1        0.0147
     19 C         143.9639  141.6013  156.0776 C.ar    1  UNL1        0.0500
     20 C         143.4158  140.3615  156.7200 C.ar    1  UNL1        0.0120
     21 N         145.3037  141.5674  155.4040 N.am    1  UNL1       -0.2839
     22 C         146.5230  142.0458  156.1350 C.2     1  UNL1        0.2256
     23 O         146.4025  142.5581  157.5397 O.2     1  UNL1       -0.2748
     24 H         145.3828  141.2312  154.4821 H       1  UNL1        0.1549
     25 C         147.8628  142.0119  155.4613 C.3     1  UNL1        0.0768
     26 C         148.7061  142.2066  154.2362 C.3     1  UNL1        0.0096
     27 C         149.3401  141.7585  155.5197 C.3     1  UNL1        0.0096
     28 N         141.6684  137.8300  157.3485 N.3     1  UNL1       -0.2644
     29 C         140.6935  137.4321  156.2801 C.3     1  UNL1        0.0901
     30 C         140.8340  136.1063  155.5926 C.3     1  UNL1        0.0897
     31 N         141.9493  135.1785  155.9734 N.3     1  UNL1       -0.2682
     32 C         142.9242  135.5763  157.0418 C.3     1  UNL1        0.0897
     33 C         142.7837  136.9020  157.7293 C.3     1  UNL1        0.0901
     34 C         142.0898  133.8527  155.2859 C.3     1  UNL1        0.1046
     35 C         142.8528  132.7427  155.9460 C.3     1  UNL1        0.1595
     36 O         143.8124  131.9128  155.1457 O.3     1  UNL1       -0.3496
     37 C         144.8007  131.0265  155.8440 C.3     1  UNL1        0.1742
@<TRIPOS>BOND
     1    11    12    1
     2    12     8    1
     3     8    13    1
     4    13    14    1
     5     8     9   am
     6     9    10    2
     7     9     2    1
     8     2     3   ar
     9     3     4   ar
    10     4     5   ar
    11     5     1    1
    12     1    15    1
    13    15    16   ar
    14    16    17   ar
    15    17    18   ar
    16    18    19   ar
    17    19    21    1
    18    21    22   am
    19    22    23    2
    20    22    25    1
    21    25    26    1
    22    26    27    1
    23    19    20   ar
    24     1    28    1
    25    28    29    1
    26    29    30    1
    27    30    31    1
    28    31    34    1
    29    34    35    1
    30    35    36    1
    31    36    37    1
    32    31    32    1
    33    32    33    1
    34     5     6   ar
    35     6     7   ar
    36     7     2   ar
    37    20    15   ar
    38    33    28    1
    39    27    25    1
    40    21    24    1
