@<TRIPOS>MOLECULE
*****
 19 20 0 0 0
SMALL
GASTEIGER

@<TRIPOS>ATOM
      1 C         140.4979  140.4364  167.2431 C.ar    1  UNL1        0.0511
      2 C         141.8687  139.9502  166.8764 C.ar    1  UNL1        0.0163
      3 C         142.7502  139.3334  167.9216 C.ar    1  UNL1        0.0253
      4 C         142.2609  139.2027  169.3335 C.ar    1  UNL1        0.1365
      5 C         140.8901  139.6889  169.7002 C.ar    1  UNL1        0.1541
      6 O         140.4007  139.5582  171.1121 O.3     1  UNL1       -0.5039
      7 C         140.0086  140.3058  168.6550 C.ar    1  UNL1        0.0527
      8 H         140.9513  139.1729  171.7651 H       1  UNL1        0.2923
      9 C         139.7670  142.5049  165.8513 C.3     1  UNL1        0.1122
     10 N         139.6164  141.0533  166.1979 N.pl3   1  UNL1       -0.3040
     11 C         138.5843  140.2186  165.4994 C.3     1  UNL1        0.1122
     12 N         143.1424  138.5858  170.3787 N.2     1  UNL1       -0.1435
     13 N         143.6974  137.2075  170.1735 N.2     1  UNL1       -0.1284
     14 C         144.5789  136.5907  171.2187 C.ar    1  UNL1        0.1838
     15 C         144.4417  135.1344  171.5513 C.ar    1  UNL1        0.0406
     16 C         145.3231  134.5175  172.5965 C.ar    1  UNL1        0.0048
     17 C         146.3419  135.3569  173.3091 C.ar    1  UNL1        0.0208
     18 C         146.4791  136.8131  172.9764 C.ar    1  UNL1        0.1006
     19 N         145.5976  137.4299  171.9312 N.ar    1  UNL1       -0.2236
@<TRIPOS>BOND
     1     9    10    1
     2    10    11    1
     3    10     1    1
     4     1     2   ar
     5     2     3   ar
     6     3     4   ar
     7     4    12    1
     8    12    13    2
     9    13    14    1
    10    14    15   ar
    11    15    16   ar
    12    16    17   ar
    13    17    18   ar
    14    18    19   ar
    15     4     5   ar
    16     5     6    1
    17     5     7   ar
    18     7     1   ar
    19    19    14   ar
    20     6     8    1
@<TRIPOS>MOLECULE
*****
 19 20 0 0 0
SMALL
GASTEIGER

@<TRIPOS>ATOM
      1 C         140.3636  141.8862  167.3491 C.ar    1  UNL1        0.0511
      2 C         140.5361  142.3384  168.7689 C.ar    1  UNL1        0.0163
      3 C         139.8778  141.5797  169.8829 C.ar    1  UNL1        0.0253
      4 C         139.0469  140.3689  169.5772 C.ar    1  UNL1        0.1365
      5 C         138.8743  139.9168  168.1574 C.ar    1  UNL1        0.1541
      6 O         138.0434  138.7059  167.8516 O.3     1  UNL1       -0.5039
      7 C         139.5327  140.6754  167.0434 C.ar    1  UNL1        0.0527
      8 H         137.6321  138.2320  168.5475 H       1  UNL1        0.2923
      9 C         140.2198  143.5993  165.4011 C.3     1  UNL1        0.1122
     10 N         141.0219  142.6448  166.2351 N.pl3   1  UNL1       -0.3040
     11 C         142.4825  142.4490  165.9551 C.3     1  UNL1        0.1122
     12 N         138.3885  139.6103  170.6912 N.2     1  UNL1       -0.1435
     13 N         137.1218  138.8492  170.4342 N.2     1  UNL1       -0.1284
     14 C         136.4634  138.0906  171.5482 C.ar    1  UNL1        0.1838
     15 C         135.2044  138.6161  172.1718 C.ar    1  UNL1        0.0406
     16 C         134.5460  137.8574  173.2858 C.ar    1  UNL1        0.0048
     17 C         135.1467  136.5733  173.7762 C.ar    1  UNL1        0.0208
     18 C         136.4056  136.0479  173.1526 C.ar    1  UNL1        0.1006
     19 N         137.0640  136.8066  172.0385 N.ar    1  UNL1       -0.2236
@<TRIPOS>BOND
     1     9    10    1
     2    10    11    1
     3    10     1    1
     4     1     2   ar
     5     2     3   ar
     6     3     4   ar
     7     4    12    1
     8    12    13    2
     9    13    14    1
    10    14    15   ar
    11    15    16   ar
    12    16    17   ar
    13    17    18   ar
    14    18    19   ar
    15     4     5   ar
    16     5     6    1
    17     5     7   ar
    18     7     1   ar
    19    19    14   ar
    20     6     8    1
@<TRIPOS>MOLECULE
*****
 19 20 0 0 0
SMALL
GASTEIGER

@<TRIPOS>ATOM
      1 C         143.5631  142.8629  160.5925 C.ar    1  UNL1        0.0511
      2 C         142.3543  142.8993  161.4798 C.ar    1  UNL1        0.0163
      3 C         142.4853  142.5789  162.9393 C.ar    1  UNL1        0.0253
      4 C         143.8251  142.2221  163.5115 C.ar    1  UNL1        0.1365
      5 C         145.0340  142.1857  162.6242 C.ar    1  UNL1        0.1541
      6 O         146.3739  141.8289  163.1964 O.3     1  UNL1       -0.5039
      7 C         144.9029  142.5061  161.1647 C.ar    1  UNL1        0.0527
      8 H         146.4558  141.6288  164.1081 H       1  UNL1        0.2923
      9 C         142.2910  144.0288  158.6502 C.3     1  UNL1        0.1122
     10 N         143.4321  143.1833  159.1330 N.pl3   1  UNL1       -0.3040
     11 C         144.4421  142.6583  158.1563 C.3     1  UNL1        0.1122
     12 N         143.9562  141.9017  164.9710 N.2     1  UNL1       -0.1435
     13 N         142.7389  141.8843  165.8473 N.2     1  UNL1       -0.1284
     14 C         142.8699  141.5639  167.3068 C.ar    1  UNL1        0.1838
     15 C         142.3845  140.2452  167.8317 C.ar    1  UNL1        0.0406
     16 C         142.5155  139.9248  169.2912 C.ar    1  UNL1        0.0048
     17 C         143.1319  140.9231  170.2258 C.ar    1  UNL1        0.0208
     18 C         143.6174  142.2417  169.7009 C.ar    1  UNL1        0.1006
     19 N         143.4863  142.5621  168.2414 N.ar    1  UNL1       -0.2236
@<TRIPOS>BOND
     1     9    10    1
     2    10    11    1
     3    10     1    1
     4     1     2   ar
     5     2     3   ar
     6     3     4   ar
     7     4    12    1
     8    12    13    2
     9    13    14    1
    10    14    15   ar
    11    15    16   ar
    12    16    17   ar
    13    17    18   ar
    14    18    19   ar
    15     4     5   ar
    16     5     6    1
    17     5     7   ar
    18     7     1   ar
    19    19    14   ar
    20     6     8    1
@<TRIPOS>MOLECULE
*****
 19 20 0 0 0
SMALL
GASTEIGER

@<TRIPOS>ATOM
      1 C         139.1580  140.0628  160.5436 C.ar    1  UNL1        0.0511
      2 C         140.4278  140.0871  161.3416 C.ar    1  UNL1        0.0163
      3 C         140.4046  140.5296  162.7747 C.ar    1  UNL1        0.0253
      4 C         139.1116  140.9477  163.4097 C.ar    1  UNL1        0.1365
      5 C         137.8418  140.9233  162.6117 C.ar    1  UNL1        0.1541
      6 O         136.5487  141.3414  163.2467 O.3     1  UNL1       -0.5039
      7 C         137.8650  140.4809  161.1786 C.ar    1  UNL1        0.0527
      8 H         136.5342  141.6178  164.1419 H       1  UNL1        0.2923
      9 C         138.3842  140.3668  158.0821 C.3     1  UNL1        0.1122
     10 N         139.1811  139.6203  159.1105 N.pl3   1  UNL1       -0.3040
     11 C         140.0012  138.4314  158.7058 C.3     1  UNL1        0.1122
     12 N         139.0885  141.3902  164.8428 N.2     1  UNL1       -0.1435
     13 N         140.0284  140.7709  165.8342 N.2     1  UNL1       -0.1284
     14 C         140.0052  141.2133  167.2673 C.ar    1  UNL1        0.1838
     15 C         140.5166  142.5732  167.6407 C.ar    1  UNL1        0.0406
     16 C         140.4935  143.0156  169.0738 C.ar    1  UNL1        0.0048
     17 C         139.9589  142.0982  170.1334 C.ar    1  UNL1        0.0208
     18 C         139.4476  140.7385  169.7600 C.ar    1  UNL1        0.1006
     19 N         139.4707  140.2960  168.3269 N.ar    1  UNL1       -0.2236
@<TRIPOS>BOND
     1     9    10    1
     2    10    11    1
     3    10     1    1
     4     1     2   ar
     5     2     3   ar
     6     3     4   ar
     7     4    12    1
     8    12    13    2
     9    13    14    1
    10    14    15   ar
    11    15    16   ar
    12    16    17   ar
    13    17    18   ar
    14    18    19   ar
    15     4     5   ar
    16     5     6    1
    17     5     7   ar
    18     7     1   ar
    19    19    14   ar
    20     6     8    1
@<TRIPOS>MOLECULE
*****
 19 20 0 0 0
SMALL
GASTEIGER

@<TRIPOS>ATOM
      1 C         140.9545  143.9701  163.4871 C.ar    1  UNL1        0.0511
      2 C         141.9568  143.4224  162.5149 C.ar    1  UNL1        0.0163
      3 C         142.0164  143.9606  161.1160 C.ar    1  UNL1        0.0253
      4 C         141.0737  145.0465  160.6894 C.ar    1  UNL1        0.1365
      5 C         140.0713  145.5941  161.6616 C.ar    1  UNL1        0.1541
      6 O         139.1284  146.6800  161.2349 O.3     1  UNL1       -0.5039
      7 C         140.0117  145.0559  163.0604 C.ar    1  UNL1        0.0527
      8 H         139.1656  147.0162  160.3611 H       1  UNL1        0.2923
      9 C         139.6479  143.6015  165.7023 C.3     1  UNL1        0.1122
     10 N         140.8948  143.4319  164.8859 N.pl3   1  UNL1       -0.3040
     11 C         142.0822  142.7242  165.4685 C.3     1  UNL1        0.1122
     12 N         141.1333  145.5846  159.2905 N.2     1  UNL1       -0.1435
     13 N         139.8689  145.7792  158.5072 N.2     1  UNL1       -0.1284
     14 C         139.9285  146.3173  157.1084 C.ar    1  UNL1        0.1838
     15 C         140.8366  145.6811  156.0981 C.ar    1  UNL1        0.0406
     16 C         140.8962  146.2192  154.6992 C.ar    1  UNL1        0.0048
     17 C         140.0477  147.3937  154.3107 C.ar    1  UNL1        0.0208
     18 C         139.1397  148.0299  155.3210 C.ar    1  UNL1        0.1006
     19 N         139.0801  147.4917  156.7198 N.ar    1  UNL1       -0.2236
@<TRIPOS>BOND
     1     9    10    1
     2    10    11    1
     3    10     1    1
     4     1     2   ar
     5     2     3   ar
     6     3     4   ar
     7     4    12    1
     8    12    13    2
     9    13    14    1
    10    14    15   ar
    11    15    16   ar
    12    16    17   ar
    13    17    18   ar
    14    18    19   ar
    15     4     5   ar
    16     5     6    1
    17     5     7   ar
    18     7     1   ar
    19    19    14   ar
    20     6     8    1
@<TRIPOS>MOLECULE
*****
 19 20 0 0 0
SMALL
GASTEIGER

@<TRIPOS>ATOM
      1 C         138.9343  138.8520  165.1376 C.ar    1  UNL1        0.0511
      2 C         138.1544  139.6236  164.1147 C.ar    1  UNL1        0.0163
      3 C         138.4159  139.4086  162.6534 C.ar    1  UNL1        0.0253
      4 C         139.4573  138.4220  162.2150 C.ar    1  UNL1        0.1365
      5 C         140.2372  137.6505  163.2380 C.ar    1  UNL1        0.1541
      6 O         141.2787  136.6639  162.7996 O.3     1  UNL1       -0.5039
      7 C         139.9757  137.8655  164.6993 C.ar    1  UNL1        0.0527
      8 H         141.4420  136.5296  161.8868 H       1  UNL1        0.2923
      9 C         139.5773  139.9559  167.3999 C.3     1  UNL1        0.1122
     10 N         138.6727  139.0670  166.5989 N.pl3   1  UNL1       -0.3040
     11 C         137.5066  138.3931  167.2592 C.3     1  UNL1        0.1122
     12 N         139.7188  138.2071  160.7537 N.2     1  UNL1       -0.1435
     13 N         141.0785  138.4878  160.1859 N.2     1  UNL1       -0.1284
     14 C         141.3400  138.2729  158.7246 C.ar    1  UNL1        0.1838
     15 C         142.7432  138.3305  158.1974 C.ar    1  UNL1        0.0406
     16 C         143.0047  138.1155  156.7361 C.ar    1  UNL1        0.0048
     17 C         141.8631  137.8429  155.8020 C.ar    1  UNL1        0.0208
     18 C         140.4600  137.7853  156.3292 C.ar    1  UNL1        0.1006
     19 N         140.1985  138.0003  157.7905 N.ar    1  UNL1       -0.2236
@<TRIPOS>BOND
     1     9    10    1
     2    10    11    1
     3    10     1    1
     4     1     2   ar
     5     2     3   ar
     6     3     4   ar
     7     4    12    1
     8    12    13    2
     9    13    14    1
    10    14    15   ar
    11    15    16   ar
    12    16    17   ar
    13    17    18   ar
    14    18    19   ar
    15     4     5   ar
    16     5     6    1
    17     5     7   ar
    18     7     1   ar
    19    19    14   ar
    20     6     8    1
@<TRIPOS>MOLECULE
*****
 19 20 0 0 0
SMALL
GASTEIGER

@<TRIPOS>ATOM
      1 C         140.6629  146.0349  156.7006 C.ar    1  UNL1        0.0511
      2 C         141.9455  145.3355  156.3606 C.ar    1  UNL1        0.0163
      3 C         142.6842  144.5682  157.4168 C.ar    1  UNL1        0.0253
      4 C         142.1403  144.5003  158.8130 C.ar    1  UNL1        0.1365
      5 C         140.8577  145.1997  159.1530 C.ar    1  UNL1        0.1541
      6 O         140.3137  145.1319  160.5493 O.3     1  UNL1       -0.5039
      7 C         140.1190  145.9671  158.0968 C.ar    1  UNL1        0.0527
      8 H         140.7751  144.6526  161.2091 H       1  UNL1        0.2923
      9 C         140.2930  146.6354  154.2001 C.3     1  UNL1        0.1122
     10 N         139.9242  146.8023  155.6444 N.pl3   1  UNL1       -0.3040
     11 C         138.8167  147.7364  156.0325 C.3     1  UNL1        0.1122
     12 N         142.8789  143.7330  159.8692 N.2     1  UNL1       -0.1435
     13 N         143.0861  144.3355  161.2271 N.2     1  UNL1       -0.1284
     14 C         143.8248  143.5682  162.2833 C.ar    1  UNL1        0.1838
     15 C         143.6932  143.9601  163.7253 C.ar    1  UNL1        0.0406
     16 C         144.4319  143.1928  164.7815 C.ar    1  UNL1        0.0048
     17 C         145.3022  142.0335  164.3957 C.ar    1  UNL1        0.0208
     18 C         145.4338  141.6416  162.9538 C.ar    1  UNL1        0.1006
     19 N         144.6951  142.4089  161.8976 N.ar    1  UNL1       -0.2236
@<TRIPOS>BOND
     1     9    10    1
     2    10    11    1
     3    10     1    1
     4     1     2   ar
     5     2     3   ar
     6     3     4   ar
     7     4    12    1
     8    12    13    2
     9    13    14    1
    10    14    15   ar
    11    15    16   ar
    12    16    17   ar
    13    17    18   ar
    14    18    19   ar
    15     4     5   ar
    16     5     6    1
    17     5     7   ar
    18     7     1   ar
    19    19    14   ar
    20     6     8    1
@<TRIPOS>MOLECULE
*****
 19 20 0 0 0
SMALL
GASTEIGER

@<TRIPOS>ATOM
      1 C         139.8497  143.6980  160.9120 C.ar    1  UNL1        0.0511
      2 C         139.8589  142.2289  161.2143 C.ar    1  UNL1        0.0163
      3 C         139.7254  141.7538  162.6308 C.ar    1  UNL1        0.0253
      4 C         139.5826  142.7478  163.7449 C.ar    1  UNL1        0.1365
      5 C         139.5734  144.2170  163.4426 C.ar    1  UNL1        0.1541
      6 O         139.4306  145.2111  164.5568 O.3     1  UNL1       -0.5039
      7 C         139.7069  144.6921  162.0261 C.ar    1  UNL1        0.0527
      8 H         139.3472  144.9143  165.4417 H       1  UNL1        0.2923
      9 C         139.3753  143.3790  158.3776 C.3     1  UNL1        0.1122
     10 N         139.9832  144.1731  159.4955 N.pl3   1  UNL1       -0.3040
     11 C         140.7246  145.4424  159.1969 C.3     1  UNL1        0.1122
     12 N         139.4491  142.2727  165.1614 N.2     1  UNL1       -0.1435
     13 N         140.4005  142.7661  166.2109 N.2     1  UNL1       -0.1284
     14 C         140.2669  142.2910  167.6273 C.ar    1  UNL1        0.1838
     15 C         140.4729  143.2497  168.7625 C.ar    1  UNL1        0.0406
     16 C         140.3394  142.7746  170.1790 C.ar    1  UNL1        0.0048
     17 C         139.9998  141.3408  170.4603 C.ar    1  UNL1        0.0208
     18 C         139.7938  140.3822  169.3252 C.ar    1  UNL1        0.1006
     19 N         139.9274  140.8573  167.9087 N.ar    1  UNL1       -0.2236
@<TRIPOS>BOND
     1     9    10    1
     2    10    11    1
     3    10     1    1
     4     1     2   ar
     5     2     3   ar
     6     3     4   ar
     7     4    12    1
     8    12    13    2
     9    13    14    1
    10    14    15   ar
    11    15    16   ar
    12    16    17   ar
    13    17    18   ar
    14    18    19   ar
    15     4     5   ar
    16     5     6    1
    17     5     7   ar
    18     7     1   ar
    19    19    14   ar
    20     6     8    1
@<TRIPOS>MOLECULE
*****
 19 20 0 0 0
SMALL
GASTEIGER

@<TRIPOS>ATOM
      1 C         141.1615  140.3442  168.4373 C.ar    1  UNL1        0.0511
      2 C         139.8298  140.2967  167.7488 C.ar    1  UNL1        0.0163
      3 C         139.6635  140.9181  166.3937 C.ar    1  UNL1        0.0253
      4 C         140.8289  141.5869  165.7272 C.ar    1  UNL1        0.1365
      5 C         142.1607  141.6344  166.4157 C.ar    1  UNL1        0.1541
      6 O         143.3262  142.3033  165.7492 O.3     1  UNL1       -0.5039
      7 C         142.3270  141.0130  167.7708 C.ar    1  UNL1        0.0527
      8 H         143.2224  142.6914  164.9027 H       1  UNL1        0.2923
      9 C         142.5348  138.8833  170.0896 C.3     1  UNL1        0.1122
     10 N         141.3278  139.7228  169.7924 N.pl3   1  UNL1       -0.3040
     11 C         140.2871  139.9409  170.8503 C.3     1  UNL1        0.1122
     12 N         140.6626  142.2083  164.3721 N.2     1  UNL1       -0.1435
     13 N         141.1692  143.5968  164.1164 N.2     1  UNL1       -0.1284
     14 C         141.0030  144.2182  162.7613 C.ar    1  UNL1        0.1838
     15 C         140.0880  145.3933  162.5823 C.ar    1  UNL1        0.0406
     16 C         139.9217  146.0147  161.2272 C.ar    1  UNL1        0.0048
     17 C         140.6704  145.4609  160.0512 C.ar    1  UNL1        0.0208
     18 C         141.5853  144.2859  160.2303 C.ar    1  UNL1        0.1006
     19 N         141.7516  143.6645  161.5854 N.ar    1  UNL1       -0.2236
@<TRIPOS>BOND
     1     9    10    1
     2    10    11    1
     3    10     1    1
     4     1     2   ar
     5     2     3   ar
     6     3     4   ar
     7     4    12    1
     8    12    13    2
     9    13    14    1
    10    14    15   ar
    11    15    16   ar
    12    16    17   ar
    13    17    18   ar
    14    18    19   ar
    15     4     5   ar
    16     5     6    1
    17     5     7   ar
    18     7     1   ar
    19    19    14   ar
    20     6     8    1
