@<TRIPOS>MOLECULE
*****
 34 37 0 0 0
SMALL
GASTEIGER

@<TRIPOS>ATOM
      1 N         141.1403  144.5553  160.8652 N.3     1  UNL1       -0.2685
      2 C         140.2191  145.3875  161.7071 C.3     1  UNL1        0.1035
      3 C         139.9989  145.0370  163.1488 C.3     1  UNL1        0.1470
      4 C         139.7786  144.6865  164.5906 C.3     1  UNL1        0.1035
      5 N         140.4796  143.5038  165.1905 N.3     1  UNL1       -0.2682
      6 C         141.4008  142.6716  164.3485 C.3     1  UNL1        0.1035
      7 C         141.6210  143.0221  162.9068 C.3     1  UNL1        0.1470
      8 C         141.8412  143.3726  161.4651 C.3     1  UNL1        0.1035
      9 O         140.6998  143.8543  163.7487 O.3     1  UNL1       -0.3530
     10 C         141.3605  144.9058  159.4234 C.3     1  UNL1        0.0737
     11 C         140.4641  144.3318  158.3667 C.3     1  UNL1        0.0362
     12 C         139.8176  142.9946  158.5768 C.3     1  UNL1        0.0929
     13 N         138.5092  142.9002  159.3043 N.3     1  UNL1       -0.1793
     14 H         138.2028  143.8562  159.4845 H       1  UNL1        0.1488
     15 S         138.4284  142.1662  160.6098 S.O2    1  UNL1        0.0602
     16 O         139.2255  141.0381  160.0250 O.2     1  UNL1       -0.1530
     17 O         137.6312  143.2942  161.1946 O.2     1  UNL1       -0.1530
     18 C         138.1857  139.9641  164.5267 C.ar    1  UNL1        0.0685
     19 C         137.6356  141.3549  164.4129 C.ar    1  UNL1        0.0116
     20 C         137.7164  142.0889  163.1073 C.ar    1  UNL1        0.0206
     21 C         138.3474  141.4321  161.9155 C.ar    1  UNL1        0.1220
     22 C         138.8975  140.0413  162.0293 C.ar    1  UNL1        0.0206
     23 C         138.8167  139.3073  163.3349 C.ar    1  UNL1        0.0116
     24 N         138.0239  138.4961  167.1380 N.1     1  UNL1       -0.1908
     25 C         138.1047  139.2301  165.8324 C.1     1  UNL1        0.1004
     26 C         140.2594  143.1533  166.6322 C.3     1  UNL1        0.0769
     27 C         140.2496  141.7160  167.0616 C.3     1  UNL1        0.0437
     28 C         141.1688  141.2530  168.1527 C.ar    1  UNL1       -0.0186
     29 C         140.8760  139.9801  168.8901 C.ar    1  UNL1       -0.0041
     30 C         141.7953  139.5169  169.9813 C.ar    1  UNL1        0.0020
     31 C         143.0074  140.3268  170.3349 C.ar    1  UNL1        0.0296
     32 C         143.3001  141.5998  169.5974 C.ar    1  UNL1        0.1398
     33 F         144.5122  142.4097  169.9510 F       1  UNL1       -0.2042
     34 C         142.3809  142.0629  168.5063 C.ar    1  UNL1        0.0254
@<TRIPOS>BOND
     1    24    25    3
     2    25    18    1
     3    18    19   ar
     4    19    20   ar
     5    20    21   ar
     6    21    15    1
     7    15    16    2
     8    15    17    2
     9    15    13    1
    10    13    12    1
    11    12    11    1
    12    11    10    1
    13    10     1    1
    14     1     2    1
    15     2     3    1
    16     3     4    1
    17     4     5    1
    18     5    26    1
    19    26    27    1
    20    27    28    1
    21    28    29   ar
    22    29    30   ar
    23    30    31   ar
    24    31    32   ar
    25    32    33    1
    26    32    34   ar
    27     5     6    1
    28     6     7    1
    29     7     8    1
    30     7     9    1
    31    21    22   ar
    32    22    23   ar
    33    23    18   ar
    34     8     1    1
    35     9     3    1
    36    34    28   ar
    37    13    14    1
@<TRIPOS>MOLECULE
*****
 34 37 0 0 0
SMALL
GASTEIGER

@<TRIPOS>ATOM
      1 N         140.8463  144.2569  162.7129 N.3     1  UNL1       -0.2685
      2 C         139.7293  143.8287  163.6177 C.3     1  UNL1        0.1035
      3 C         138.8881  142.6396  163.2596 C.3     1  UNL1        0.1470
      4 C         138.0468  141.4504  162.9015 C.3     1  UNL1        0.1035
      5 N         138.3227  140.6895  161.6385 N.3     1  UNL1       -0.2682
      6 C         139.4398  141.1178  160.7337 C.3     1  UNL1        0.1035
      7 C         140.2810  142.3069  161.0919 C.3     1  UNL1        0.1470
      8 C         141.1222  143.4961  161.4500 C.3     1  UNL1        0.1035
      9 O         139.1639  141.8787  161.9966 O.3     1  UNL1       -0.3530
     10 C         141.6876  145.4461  163.0710 C.3     1  UNL1        0.0737
     11 C         142.8440  145.2903  164.0135 C.3     1  UNL1        0.0362
     12 C         143.9672  144.3556  163.6745 C.3     1  UNL1        0.0929
     13 N         143.7836  142.8750  163.8297 N.3     1  UNL1       -0.1793
     14 H         143.2616  142.5559  163.0136 H       1  UNL1        0.1488
     15 S         143.0781  142.3291  165.0356 S.O2    1  UNL1        0.0602
     16 O         143.9942  143.1142  165.9269 O.2     1  UNL1       -0.1530
     17 O         142.1621  141.5441  164.1444 O.2     1  UNL1       -0.1530
     18 C         140.9616  140.6915  168.6534 C.ar    1  UNL1        0.0685
     19 C         140.4045  140.4446  167.2828 C.ar    1  UNL1        0.0116
     20 C         141.1099  140.9904  166.0769 C.ar    1  UNL1        0.0206
     21 C         142.3726  141.7832  166.2416 C.ar    1  UNL1        0.1220
     22 C         142.9297  142.0302  167.6122 C.ar    1  UNL1        0.0206
     23 C         142.2243  141.4843  168.8181 C.ar    1  UNL1        0.0116
     24 N         139.5505  139.5998  171.0653 N.1     1  UNL1       -0.1908
     25 C         140.2561  140.1456  169.8594 C.1     1  UNL1        0.1004
     26 C         137.4815  139.5003  161.2804 C.3     1  UNL1        0.0769
     27 C         137.9462  138.1188  161.6347 C.3     1  UNL1        0.0437
     28 C         139.0966  137.9337  162.5793 C.ar    1  UNL1       -0.0186
     29 C         138.8432  137.7910  164.0508 C.ar    1  UNL1       -0.0041
     30 C         139.9935  137.6059  164.9955 C.ar    1  UNL1        0.0020
     31 C         141.3973  137.5634  164.4686 C.ar    1  UNL1        0.0296
     32 C         141.6507  137.7061  162.9970 C.ar    1  UNL1        0.1398
     33 F         143.0545  137.6636  162.4702 F       1  UNL1       -0.2042
     34 C         140.5003  137.8912  162.0524 C.ar    1  UNL1        0.0254
@<TRIPOS>BOND
     1    24    25    3
     2    25    18    1
     3    18    19   ar
     4    19    20   ar
     5    20    21   ar
     6    21    15    1
     7    15    16    2
     8    15    17    2
     9    15    13    1
    10    13    12    1
    11    12    11    1
    12    11    10    1
    13    10     1    1
    14     1     2    1
    15     2     3    1
    16     3     4    1
    17     4     5    1
    18     5    26    1
    19    26    27    1
    20    27    28    1
    21    28    29   ar
    22    29    30   ar
    23    30    31   ar
    24    31    32   ar
    25    32    33    1
    26    32    34   ar
    27     5     6    1
    28     6     7    1
    29     7     8    1
    30     7     9    1
    31    21    22   ar
    32    22    23   ar
    33    23    18   ar
    34     8     1    1
    35     9     3    1
    36    34    28   ar
    37    13    14    1
@<TRIPOS>MOLECULE
*****
 34 37 0 0 0
SMALL
GASTEIGER

@<TRIPOS>ATOM
      1 N         142.5644  140.2457  168.3365 N.3     1  UNL1       -0.2685
      2 C         142.8128  141.7165  168.1785 C.3     1  UNL1        0.1035
      3 C         143.1502  142.2794  166.8298 C.3     1  UNL1        0.1470
      4 C         143.4876  142.8425  165.4810 C.3     1  UNL1        0.1035
      5 N         143.5766  141.9347  164.2902 N.3     1  UNL1       -0.2682
      6 C         143.3282  140.4638  164.4482 C.3     1  UNL1        0.1035
      7 C         142.9908  139.9008  165.7970 C.3     1  UNL1        0.1470
      8 C         142.6534  139.3379  167.1457 C.3     1  UNL1        0.1035
      9 O         143.2392  141.3716  165.6390 O.3     1  UNL1       -0.3530
     10 C         142.2270  139.6826  169.6853 C.3     1  UNL1        0.0737
     11 C         140.8176  139.7485  170.1943 C.3     1  UNL1        0.0362
     12 C         139.7371  140.3372  169.3364 C.3     1  UNL1        0.0929
     13 N         138.7430  139.4396  168.6612 N.3     1  UNL1       -0.1793
     14 H         138.9850  138.4835  168.9217 H       1  UNL1        0.1488
     15 S         138.6074  139.4602  167.1675 S.O2    1  UNL1        0.0602
     16 O         137.7272  138.2473  167.2306 O.2     1  UNL1       -0.1530
     17 O         139.4877  140.6731  167.1043 O.2     1  UNL1       -0.1530
     18 C         138.2007  139.5221  162.6863 C.ar    1  UNL1        0.0685
     19 C         137.8942  140.7547  163.4844 C.ar    1  UNL1        0.0116
     20 C         138.0297  140.7341  164.9780 C.ar    1  UNL1        0.0206
     21 C         138.4718  139.4809  165.6737 C.ar    1  UNL1        0.1220
     22 C         138.7784  138.2483  164.8757 C.ar    1  UNL1        0.0206
     23 C         138.6428  138.2689  163.3820 C.ar    1  UNL1        0.0116
     24 N         137.9296  139.5635  159.6989 N.1     1  UNL1       -0.1908
     25 C         138.0652  139.5428  161.1926 C.1     1  UNL1        0.1004
     26 C         143.9140  142.4977  162.9414 C.3     1  UNL1        0.0769
     27 C         142.8656  142.5580  161.8702 C.3     1  UNL1        0.0437
     28 C         141.7077  143.5018  162.0064 C.ar    1  UNL1       -0.0186
     29 C         141.5915  144.6833  161.0897 C.ar    1  UNL1       -0.0041
     30 C         140.4335  145.6272  161.2258 C.ar    1  UNL1        0.0020
     31 C         139.3919  145.3894  162.2786 C.ar    1  UNL1        0.0296
     32 C         139.5082  144.2077  163.1953 C.ar    1  UNL1        0.1398
     33 F         138.4665  143.9699  164.2481 F       1  UNL1       -0.2042
     34 C         140.6660  143.2640  163.0592 C.ar    1  UNL1        0.0254
@<TRIPOS>BOND
     1    24    25    3
     2    25    18    1
     3    18    19   ar
     4    19    20   ar
     5    20    21   ar
     6    21    15    1
     7    15    16    2
     8    15    17    2
     9    15    13    1
    10    13    12    1
    11    12    11    1
    12    11    10    1
    13    10     1    1
    14     1     2    1
    15     2     3    1
    16     3     4    1
    17     4     5    1
    18     5    26    1
    19    26    27    1
    20    27    28    1
    21    28    29   ar
    22    29    30   ar
    23    30    31   ar
    24    31    32   ar
    25    32    33    1
    26    32    34   ar
    27     5     6    1
    28     6     7    1
    29     7     8    1
    30     7     9    1
    31    21    22   ar
    32    22    23   ar
    33    23    18   ar
    34     8     1    1
    35     9     3    1
    36    34    28   ar
    37    13    14    1
@<TRIPOS>MOLECULE
*****
 34 37 0 0 0
SMALL
GASTEIGER

@<TRIPOS>ATOM
      1 N         144.0720  139.7244  163.7034 N.3     1  UNL1       -0.2685
      2 C         143.1485  139.2386  164.7809 C.3     1  UNL1        0.1035
      3 C         141.7755  138.7490  164.4273 C.3     1  UNL1        0.1470
      4 C         140.4024  138.2592  164.0738 C.3     1  UNL1        0.1035
      5 N         139.9530  138.2553  162.6427 N.3     1  UNL1       -0.2682
      6 C         140.8766  138.7412  161.5652 C.3     1  UNL1        0.1035
      7 C         142.2496  139.2309  161.9187 C.3     1  UNL1        0.1470
      8 C         143.6225  139.7206  162.2723 C.3     1  UNL1        0.1035
      9 O         141.3260  138.7451  162.9963 O.3     1  UNL1       -0.3530
     10 C         145.4451  140.2142  164.0569 C.3     1  UNL1        0.0737
     11 C         145.8206  141.6436  163.8008 C.3     1  UNL1        0.0362
     12 C         144.7534  142.6931  163.7011 C.3     1  UNL1        0.0929
     13 N         144.3145  143.4353  164.9285 N.3     1  UNL1       -0.1793
     14 H         145.1512  143.5994  165.4884 H       1  UNL1        0.1488
     15 S         143.2920  142.8311  165.8447 S.O2    1  UNL1        0.0602
     16 O         142.3984  142.5625  164.6703 O.2     1  UNL1       -0.1530
     17 O         144.1856  143.0998  167.0191 O.2     1  UNL1       -0.1530
     18 C         140.2246  141.0186  168.5935 C.ar    1  UNL1        0.0685
     19 C         141.5767  141.3951  169.1227 C.ar    1  UNL1        0.0116
     20 C         142.5991  141.9993  168.2065 C.ar    1  UNL1        0.0206
     21 C         142.2695  142.2269  166.7610 C.ar    1  UNL1        0.1220
     22 C         140.9175  141.8504  166.2317 C.ar    1  UNL1        0.0206
     23 C         139.8950  141.2462  167.1480 C.ar    1  UNL1        0.0116
     24 N         138.1797  139.8102  170.4260 N.1     1  UNL1       -0.1908
     25 C         139.2021  140.4144  169.5098 C.1     1  UNL1        0.1004
     26 C         138.5800  137.7656  162.2891 C.3     1  UNL1        0.0769
     27 C         137.5859  138.7027  161.6695 C.3     1  UNL1        0.0437
     28 C         137.7221  140.1825  161.8733 C.ar    1  UNL1       -0.0186
     29 C         138.0944  141.0672  160.7206 C.ar    1  UNL1       -0.0041
     30 C         138.2306  142.5471  160.9244 C.ar    1  UNL1        0.0020
     31 C         137.9944  143.1422  162.2808 C.ar    1  UNL1        0.0296
     32 C         137.6220  142.2575  163.4335 C.ar    1  UNL1        0.1398
     33 F         137.3858  142.8526  164.7900 F       1  UNL1       -0.2042
     34 C         137.4859  140.7777  163.2297 C.ar    1  UNL1        0.0254
@<TRIPOS>BOND
     1    24    25    3
     2    25    18    1
     3    18    19   ar
     4    19    20   ar
     5    20    21   ar
     6    21    15    1
     7    15    16    2
     8    15    17    2
     9    15    13    1
    10    13    12    1
    11    12    11    1
    12    11    10    1
    13    10     1    1
    14     1     2    1
    15     2     3    1
    16     3     4    1
    17     4     5    1
    18     5    26    1
    19    26    27    1
    20    27    28    1
    21    28    29   ar
    22    29    30   ar
    23    30    31   ar
    24    31    32   ar
    25    32    33    1
    26    32    34   ar
    27     5     6    1
    28     6     7    1
    29     7     8    1
    30     7     9    1
    31    21    22   ar
    32    22    23   ar
    33    23    18   ar
    34     8     1    1
    35     9     3    1
    36    34    28   ar
    37    13    14    1
@<TRIPOS>MOLECULE
*****
 34 37 0 0 0
SMALL
GASTEIGER

@<TRIPOS>ATOM
      1 N         142.4677  143.3558  160.5082 N.3     1  UNL1       -0.2685
      2 C         142.2408  144.3391  161.6180 C.3     1  UNL1        0.1035
      3 C         142.3746  143.9016  163.0465 C.3     1  UNL1        0.1470
      4 C         142.5083  143.4642  164.4751 C.3     1  UNL1        0.1035
      5 N         142.8688  142.0435  164.7939 N.3     1  UNL1       -0.2682
      6 C         143.0957  141.0602  163.6840 C.3     1  UNL1        0.1035
      7 C         142.9619  141.4977  162.2555 C.3     1  UNL1        0.1470
      8 C         142.8282  141.9351  160.8270 C.3     1  UNL1        0.1035
      9 O         142.7351  142.4809  163.3653 O.3     1  UNL1       -0.3530
     10 C         142.3339  143.7932  159.0796 C.3     1  UNL1        0.0737
     11 C         140.9737  144.0116  158.4863 C.3     1  UNL1        0.0362
     12 C         139.7940  143.2505  159.0146 C.3     1  UNL1        0.0929
     13 N         139.0529  143.7556  160.2169 N.3     1  UNL1       -0.1793
     14 H         139.5607  144.5737  160.5536 H       1  UNL1        0.1488
     15 S         138.8439  142.8584  161.4006 S.O2    1  UNL1        0.0602
     16 O         138.2510  144.0048  162.1649 O.2     1  UNL1       -0.1530
     17 O         139.4368  141.7120  160.6363 O.2     1  UNL1       -0.1530
     18 C         138.2168  140.1665  164.9517 C.ar    1  UNL1        0.0685
     19 C         137.8854  139.6782  163.5727 C.ar    1  UNL1        0.0116
     20 C         138.0944  140.5755  162.3890 C.ar    1  UNL1        0.0206
     21 C         138.6348  141.9610  162.5844 C.ar    1  UNL1        0.1220
     22 C         138.9662  142.4493  163.9634 C.ar    1  UNL1        0.0206
     23 C         138.7572  141.5520  165.1471 C.ar    1  UNL1        0.0116
     24 N         137.7987  138.3718  167.3191 N.1     1  UNL1       -0.1908
     25 C         138.0078  139.2691  166.1355 C.1     1  UNL1        0.1004
     26 C         143.0026  141.6061  166.2224 C.3     1  UNL1        0.0769
     27 C         141.9457  140.7422  166.8443 C.3     1  UNL1        0.0437
     28 C         141.1556  141.2488  168.0144 C.ar    1  UNL1       -0.0186
     29 C         140.3303  140.2983  168.8301 C.ar    1  UNL1       -0.0041
     30 C         139.5402  140.8049  170.0002 C.ar    1  UNL1        0.0020
     31 C         139.5755  142.2620  170.3546 C.ar    1  UNL1        0.0296
     32 C         140.4009  143.2125  169.5389 C.ar    1  UNL1        0.1398
     33 F         140.4361  144.6696  169.8933 F       1  UNL1       -0.2042
     34 C         141.1909  142.7059  168.3688 C.ar    1  UNL1        0.0254
@<TRIPOS>BOND
     1    24    25    3
     2    25    18    1
     3    18    19   ar
     4    19    20   ar
     5    20    21   ar
     6    21    15    1
     7    15    16    2
     8    15    17    2
     9    15    13    1
    10    13    12    1
    11    12    11    1
    12    11    10    1
    13    10     1    1
    14     1     2    1
    15     2     3    1
    16     3     4    1
    17     4     5    1
    18     5    26    1
    19    26    27    1
    20    27    28    1
    21    28    29   ar
    22    29    30   ar
    23    30    31   ar
    24    31    32   ar
    25    32    33    1
    26    32    34   ar
    27     5     6    1
    28     6     7    1
    29     7     8    1
    30     7     9    1
    31    21    22   ar
    32    22    23   ar
    33    23    18   ar
    34     8     1    1
    35     9     3    1
    36    34    28   ar
    37    13    14    1
@<TRIPOS>MOLECULE
*****
 34 37 0 0 0
SMALL
GASTEIGER

@<TRIPOS>ATOM
      1 N         142.3020  141.5118  160.8092 N.3     1  UNL1       -0.2685
      2 C         143.2471  141.9734  161.8785 C.3     1  UNL1        0.1035
      3 C         142.7322  142.2783  163.2540 C.3     1  UNL1        0.1470
      4 C         142.2172  142.5831  164.6295 C.3     1  UNL1        0.1035
      5 N         140.7572  142.4263  164.9356 N.3     1  UNL1       -0.2682
      6 C         139.8121  141.9646  163.8661 C.3     1  UNL1        0.1035
      7 C         140.3270  141.6598  162.4907 C.3     1  UNL1        0.1470
      8 C         140.8420  141.3549  161.1152 C.3     1  UNL1        0.1035
      9 O         141.2721  142.1215  163.5600 O.3     1  UNL1       -0.3530
     10 C         142.8169  141.2069  159.4336 C.3     1  UNL1        0.0737
     11 C         143.6842  140.0042  159.2070 C.3     1  UNL1        0.0362
     12 C         143.1331  138.6281  159.4364 C.3     1  UNL1        0.0929
     13 N         143.3806  137.9288  160.7401 N.3     1  UNL1       -0.1793
     14 H         143.5059  136.9397  160.5246 H       1  UNL1        0.1488
     15 S         142.3619  138.0070  161.8383 S.O2    1  UNL1        0.0602
     16 O         141.2757  137.6912  160.8533 O.2     1  UNL1       -0.1530
     17 O         143.4481  138.3228  162.8234 O.2     1  UNL1       -0.1530
     18 C         139.3060  138.2416  165.1332 C.ar    1  UNL1        0.0685
     19 C         138.9100  137.7360  163.7776 C.ar    1  UNL1        0.0116
     20 C         139.9287  137.6578  162.6793 C.ar    1  UNL1        0.0206
     21 C         141.3432  138.0852  162.9366 C.ar    1  UNL1        0.1220
     22 C         141.7392  138.5907  164.2922 C.ar    1  UNL1        0.0206
     23 C         140.7206  138.6689  165.3905 C.ar    1  UNL1        0.0116
     24 N         137.2686  138.3980  167.3297 N.1     1  UNL1       -0.1908
     25 C         138.2873  138.3198  166.2315 C.1     1  UNL1        0.1004
     26 C         140.2423  142.7312  166.3110 C.3     1  UNL1        0.0769
     27 C         140.0325  141.6201  167.2967 C.3     1  UNL1        0.0437
     28 C         141.0994  141.2963  168.3001 C.ar    1  UNL1       -0.0186
     29 C         141.8875  142.4008  168.9395 C.ar    1  UNL1       -0.0041
     30 C         142.9545  142.0770  169.9430 C.ar    1  UNL1        0.0020
     31 C         143.2332  140.6488  170.3070 C.ar    1  UNL1        0.0296
     32 C         142.4450  139.5443  169.6675 C.ar    1  UNL1        0.1398
     33 F         142.7237  138.1161  170.0315 F       1  UNL1       -0.2042
     34 C         141.3781  139.8681  168.6641 C.ar    1  UNL1        0.0254
@<TRIPOS>BOND
     1    24    25    3
     2    25    18    1
     3    18    19   ar
     4    19    20   ar
     5    20    21   ar
     6    21    15    1
     7    15    16    2
     8    15    17    2
     9    15    13    1
    10    13    12    1
    11    12    11    1
    12    11    10    1
    13    10     1    1
    14     1     2    1
    15     2     3    1
    16     3     4    1
    17     4     5    1
    18     5    26    1
    19    26    27    1
    20    27    28    1
    21    28    29   ar
    22    29    30   ar
    23    30    31   ar
    24    31    32   ar
    25    32    33    1
    26    32    34   ar
    27     5     6    1
    28     6     7    1
    29     7     8    1
    30     7     9    1
    31    21    22   ar
    32    22    23   ar
    33    23    18   ar
    34     8     1    1
    35     9     3    1
    36    34    28   ar
    37    13    14    1
@<TRIPOS>MOLECULE
*****
 34 37 0 0 0
SMALL
GASTEIGER

@<TRIPOS>ATOM
      1 N         139.3613  139.6415  160.2030 N.3     1  UNL1       -0.2685
      2 C         138.6862  139.3335  161.5066 C.3     1  UNL1        0.1035
      3 C         138.3079  140.4476  162.4368 C.3     1  UNL1        0.1470
      4 C         137.9295  141.5618  163.3672 C.3     1  UNL1        0.1035
      5 N         138.2263  142.9840  162.9939 N.3     1  UNL1       -0.2682
      6 C         138.9014  143.2920  161.6903 C.3     1  UNL1        0.1035
      7 C         139.2797  142.1778  160.7600 C.3     1  UNL1        0.1470
      8 C         139.6580  141.0637  159.8297 C.3     1  UNL1        0.1035
      9 O         138.6046  141.8698  162.0636 O.3     1  UNL1       -0.3530
     10 C         139.7396  138.5273  159.2726 C.3     1  UNL1        0.0737
     11 C         141.1711  138.0916  159.1673 C.3     1  UNL1        0.0362
     12 C         142.1215  138.3589  160.2967 C.3     1  UNL1        0.0929
     13 N         142.1944  137.4099  161.4560 N.3     1  UNL1       -0.1793
     14 H         141.4494  136.7258  161.3238 H       1  UNL1        0.1488
     15 S         142.0636  137.9270  162.8579 S.O2    1  UNL1        0.0602
     16 O         143.2242  138.8486  162.6262 O.2     1  UNL1       -0.1530
     17 O         140.9030  137.0055  163.0896 O.2     1  UNL1       -0.1530
     18 C         141.6713  139.4785  167.0637 C.ar    1  UNL1        0.0685
     19 C         140.4660  139.4121  166.1733 C.ar    1  UNL1        0.0116
     20 C         140.5967  138.8950  164.7714 C.ar    1  UNL1        0.0206
     21 C         141.9328  138.4442  164.2599 C.ar    1  UNL1        0.1220
     22 C         143.1381  138.5106  165.1503 C.ar    1  UNL1        0.0206
     23 C         143.0073  139.0278  166.5522 C.ar    1  UNL1        0.0116
     24 N         141.4097  140.5129  169.8676 N.1     1  UNL1       -0.1908
     25 C         141.5405  139.9957  168.4657 C.1     1  UNL1        0.1004
     26 C         137.8480  144.0982  163.9242 C.3     1  UNL1        0.0769
     27 C         138.9009  144.7759  164.7501 C.3     1  UNL1        0.0437
     28 C         140.3240  144.3066  164.6831 C.ar    1  UNL1       -0.0186
     29 C         140.7501  143.0919  165.4530 C.ar    1  UNL1       -0.0041
     30 C         142.1733  142.6225  165.3860 C.ar    1  UNL1        0.0020
     31 C         143.1702  143.3679  164.5490 C.ar    1  UNL1        0.0296
     32 C         142.7440  144.5826  163.7791 C.ar    1  UNL1        0.1398
     33 F         143.7410  145.3280  162.9421 F       1  UNL1       -0.2042
     34 C         141.3209  145.0520  163.8461 C.ar    1  UNL1        0.0254
@<TRIPOS>BOND
     1    24    25    3
     2    25    18    1
     3    18    19   ar
     4    19    20   ar
     5    20    21   ar
     6    21    15    1
     7    15    16    2
     8    15    17    2
     9    15    13    1
    10    13    12    1
    11    12    11    1
    12    11    10    1
    13    10     1    1
    14     1     2    1
    15     2     3    1
    16     3     4    1
    17     4     5    1
    18     5    26    1
    19    26    27    1
    20    27    28    1
    21    28    29   ar
    22    29    30   ar
    23    30    31   ar
    24    31    32   ar
    25    32    33    1
    26    32    34   ar
    27     5     6    1
    28     6     7    1
    29     7     8    1
    30     7     9    1
    31    21    22   ar
    32    22    23   ar
    33    23    18   ar
    34     8     1    1
    35     9     3    1
    36    34    28   ar
    37    13    14    1
@<TRIPOS>MOLECULE
*****
 34 37 0 0 0
SMALL
GASTEIGER

@<TRIPOS>ATOM
      1 N         142.0313  144.3754  159.6423 N.3     1  UNL1       -0.2685
      2 C         141.7445  144.7262  161.0722 C.3     1  UNL1        0.1035
      3 C         142.5310  144.0816  162.1748 C.3     1  UNL1        0.1470
      4 C         143.3176  143.4370  163.2775 C.3     1  UNL1        0.1035
      5 N         144.3909  142.4416  162.9503 N.3     1  UNL1       -0.2682
      6 C         144.6777  142.0908  161.5203 C.3     1  UNL1        0.1035
      7 C         143.8912  142.7354  160.4177 C.3     1  UNL1        0.1470
      8 C         143.1046  143.3800  159.3151 C.3     1  UNL1        0.1035
      9 O         143.6044  143.0862  161.8476 O.3     1  UNL1       -0.3530
     10 C         141.2447  145.0200  158.5396 C.3     1  UNL1        0.0737
     11 C         139.9451  144.4177  158.0943 C.3     1  UNL1        0.0362
     12 C         139.5526  143.0487  158.5652 C.3     1  UNL1        0.0929
     13 N         138.3997  142.8826  159.5103 N.3     1  UNL1       -0.1793
     14 H         137.9399  143.7907  159.5764 H       1  UNL1        0.1488
     15 S         138.6429  142.4172  160.9154 S.O2    1  UNL1        0.0602
     16 O         139.2236  141.1374  160.3910 O.2     1  UNL1       -0.1530
     17 O         138.0623  143.6970  161.4398 O.2     1  UNL1       -0.1530
     18 C         139.3727  141.0211  165.1306 C.ar    1  UNL1        0.0685
     19 C         138.0184  141.5287  164.7325 C.ar    1  UNL1        0.0116
     20 C         137.7752  141.9940  163.3274 C.ar    1  UNL1        0.0206
     21 C         138.8862  141.9518  162.3205 C.ar    1  UNL1        0.1220
     22 C         140.2404  141.4443  162.7187 C.ar    1  UNL1        0.0206
     23 C         140.4836  140.9789  164.1237 C.ar    1  UNL1        0.0116
     24 N         139.8591  140.0905  167.9409 N.1     1  UNL1       -0.1908
     25 C         139.6159  140.5558  166.5358 C.1     1  UNL1        0.1004
     26 C         145.1774  141.7971  164.0529 C.3     1  UNL1        0.0769
     27 C         145.3490  140.3071  164.0798 C.3     1  UNL1        0.0437
     28 C         144.1460  139.4149  164.1607 C.ar    1  UNL1       -0.0186
     29 C         143.5570  139.0695  165.4963 C.ar    1  UNL1       -0.0041
     30 C         142.3538  138.1773  165.5772 C.ar    1  UNL1        0.0020
     31 C         141.7398  137.6306  164.3226 C.ar    1  UNL1        0.0296
     32 C         142.3288  137.9761  162.9870 C.ar    1  UNL1        0.1398
     33 F         141.7148  137.4294  161.7324 F       1  UNL1       -0.2042
     34 C         143.5319  138.8682  162.9061 C.ar    1  UNL1        0.0254
@<TRIPOS>BOND
     1    24    25    3
     2    25    18    1
     3    18    19   ar
     4    19    20   ar
     5    20    21   ar
     6    21    15    1
     7    15    16    2
     8    15    17    2
     9    15    13    1
    10    13    12    1
    11    12    11    1
    12    11    10    1
    13    10     1    1
    14     1     2    1
    15     2     3    1
    16     3     4    1
    17     4     5    1
    18     5    26    1
    19    26    27    1
    20    27    28    1
    21    28    29   ar
    22    29    30   ar
    23    30    31   ar
    24    31    32   ar
    25    32    33    1
    26    32    34   ar
    27     5     6    1
    28     6     7    1
    29     7     8    1
    30     7     9    1
    31    21    22   ar
    32    22    23   ar
    33    23    18   ar
    34     8     1    1
    35     9     3    1
    36    34    28   ar
    37    13    14    1
@<TRIPOS>MOLECULE
*****
 34 37 0 0 0
SMALL
GASTEIGER

@<TRIPOS>ATOM
      1 N         143.1587  138.7890  159.1807 N.3     1  UNL1       -0.2685
      2 C         143.2379  137.9503  160.4218 C.3     1  UNL1        0.1035
      3 C         143.7031  138.5604  161.7107 C.3     1  UNL1        0.1470
      4 C         144.1683  139.1704  162.9997 C.3     1  UNL1        0.1035
      5 N         144.5543  140.6191  163.0476 N.3     1  UNL1       -0.2682
      6 C         144.4751  141.4578  161.8064 C.3     1  UNL1        0.1035
      7 C         144.0098  140.8477  160.5175 C.3     1  UNL1        0.1470
      8 C         143.5446  140.2377  159.2285 C.3     1  UNL1        0.1035
      9 O         144.0891  140.0091  161.7585 O.3     1  UNL1       -0.3530
     10 C         142.6934  138.1789  157.8917 C.3     1  UNL1        0.0737
     11 C         141.2840  138.3941  157.4258 C.3     1  UNL1        0.0362
     12 C         140.1657  138.4581  158.4236 C.3     1  UNL1        0.0929
     13 N         140.0184  139.6600  159.3088 N.3     1  UNL1       -0.1793
     14 H         140.9175  140.1417  159.3034 H       1  UNL1        0.1488
     15 S         139.6277  139.4888  160.7469 S.O2    1  UNL1        0.0602
     16 O         139.5417  140.9784  160.9008 O.2     1  UNL1       -0.1530
     17 O         139.7136  137.9993  160.5929 O.2     1  UNL1       -0.1530
     18 C         138.4553  138.9751  165.0610 C.ar    1  UNL1        0.0685
     19 C         138.4000  140.3326  164.4253 C.ar    1  UNL1        0.0116
     20 C         138.7908  140.5039  162.9873 C.ar    1  UNL1        0.0206
     21 C         139.2369  139.3176  162.1850 C.ar    1  UNL1        0.1220
     22 C         139.2922  137.9601  162.8206 C.ar    1  UNL1        0.0206
     23 C         138.9014  137.7889  164.2587 C.ar    1  UNL1        0.0116
     24 N         137.6738  138.6327  167.9371 N.1     1  UNL1       -0.1908
     25 C         138.0645  138.8039  166.4991 C.1     1  UNL1        0.1004
     26 C         145.0195  141.2292  164.3365 C.3     1  UNL1        0.0769
     27 C         144.4592  142.5451  164.7887 C.3     1  UNL1        0.0437
     28 C         143.1624  142.5892  165.5414 C.ar    1  UNL1       -0.0186
     29 C         143.1139  142.1589  166.9775 C.ar    1  UNL1       -0.0041
     30 C         141.8171  142.2029  167.7302 C.ar    1  UNL1        0.0020
     31 C         140.5690  142.6774  167.0468 C.ar    1  UNL1        0.0296
     32 C         140.6176  143.1077  165.6106 C.ar    1  UNL1        0.1398
     33 F         139.3695  143.5821  164.9272 F       1  UNL1       -0.2042
     34 C         141.9143  143.0636  164.8579 C.ar    1  UNL1        0.0254
@<TRIPOS>BOND
     1    24    25    3
     2    25    18    1
     3    18    19   ar
     4    19    20   ar
     5    20    21   ar
     6    21    15    1
     7    15    16    2
     8    15    17    2
     9    15    13    1
    10    13    12    1
    11    12    11    1
    12    11    10    1
    13    10     1    1
    14     1     2    1
    15     2     3    1
    16     3     4    1
    17     4     5    1
    18     5    26    1
    19    26    27    1
    20    27    28    1
    21    28    29   ar
    22    29    30   ar
    23    30    31   ar
    24    31    32   ar
    25    32    33    1
    26    32    34   ar
    27     5     6    1
    28     6     7    1
    29     7     8    1
    30     7     9    1
    31    21    22   ar
    32    22    23   ar
    33    23    18   ar
    34     8     1    1
    35     9     3    1
    36    34    28   ar
    37    13    14    1
