@<TRIPOS>MOLECULE
*****
 31 35 0 0 0
SMALL
GASTEIGER

@<TRIPOS>ATOM
      1 C         139.9713  145.8455  161.7582 C.3     1  UNL1        0.0730
      2 C         142.7218  139.5660  170.6053 C.3     1  UNL1        0.0950
      3 C         142.3531  140.4076  169.4196 C.ar    1  UNL1        0.2062
      4 N         140.9956  140.9760  169.1296 N.ar    1  UNL1       -0.2121
      5 C         141.0808  141.7482  167.8465 C.ar    1  UNL1        0.1182
      6 C         140.0565  142.5226  167.0712 C.ar    1  UNL1        0.0178
      7 C         140.4424  143.2059  165.7928 C.ar    1  UNL1       -0.0230
      8 C         141.8525  143.1148  165.2898 C.ar    1  UNL1       -0.0216
      9 C         142.8768  142.3404  166.0650 C.ar    1  UNL1        0.0346
     10 C         142.4910  141.6571  167.3434 C.ar    1  UNL1        0.1640
     11 O         143.2773  140.8286  168.3157 O.2     1  UNL1       -0.4384
     12 C         142.4436  143.7160  164.0491 C.3     1  UNL1        0.0434
     13 C         141.7703  144.5567  163.0050 C.3     1  UNL1        0.0768
     14 N         140.3400  145.0039  162.9439 N.3     1  UNL1       -0.2720
     15 C         139.2293  144.7209  163.9116 C.3     1  UNL1        0.0768
     16 C         139.2749  143.9207  165.1795 C.3     1  UNL1        0.0434
     17 C         140.5390  145.5270  160.4067 C.3     1  UNL1        0.0294
     18 C         139.9379  144.4287  159.5806 C.3     1  UNL1        0.0666
     19 S         140.1428  142.9960  159.9744 S.3     1  UNL1       -0.0756
     20 C         139.2589  142.3696  161.0120 C.ar    1  UNL1        0.1933
     21 N         137.7993  142.6509  161.2130 N.ar    1  UNL1       -0.1220
     22 N         137.3177  141.8071  162.3559 N.ar    1  UNL1       -0.1250
     23 C         138.4798  141.0043  162.8611 C.ar    1  UNL1        0.2029
     24 N         139.6795  141.3520  162.0305 N.ar    1  UNL1       -0.2860
     25 C         141.0577  140.7820  162.1905 C.3     1  UNL1        0.1341
     26 C         138.4477  140.0257  163.9975 C.ar    1  UNL1        0.1964
     27 O         138.1527  140.3497  165.4320 O.2     1  UNL1       -0.4283
     28 C         138.2277  139.0755  166.2199 C.ar    1  UNL1        0.2849
     29 N         138.5691  137.9640  165.2723 N.ar    1  UNL1       -0.2085
     30 C         138.7050  138.5512  163.8987 C.ar    1  UNL1        0.1001
     31 C         139.0396  137.7965  162.6464 C.3     1  UNL1        0.0556
@<TRIPOS>BOND
     1     2     3    1
     2     3     4   ar
     3     4     5   ar
     4     5     6   ar
     5     6     7   ar
     6     7     8   ar
     7     8     9   ar
     8     9    10   ar
     9    10    11   ar
    10     8    12    1
    11    12    13    1
    12    13    14    1
    13    14     1    1
    14     1    17    1
    15    17    18    1
    16    18    19    1
    17    19    20    1
    18    20    21   ar
    19    21    22   ar
    20    22    23   ar
    21    23    26    1
    22    26    27   ar
    23    27    28   ar
    24    28    29   ar
    25    29    30   ar
    26    30    31    1
    27    23    24   ar
    28    24    25    1
    29    14    15    1
    30    15    16    1
    31    11     3   ar
    32    24    20   ar
    33    10     5   ar
    34    30    26   ar
    35    16     7    1
@<TRIPOS>MOLECULE
*****
 31 35 0 0 0
SMALL
GASTEIGER

@<TRIPOS>ATOM
      1 C         140.0262  146.0216  162.0282 C.3     1  UNL1        0.0730
      2 C         142.5398  138.8071  170.2074 C.3     1  UNL1        0.0950
      3 C         142.2029  139.7740  169.1112 C.ar    1  UNL1        0.2062
      4 N         143.1405  140.2616  168.0466 N.ar    1  UNL1       -0.2121
      5 C         142.3863  141.2120  167.1647 C.ar    1  UNL1        0.1182
      6 C         142.7964  141.9994  165.9556 C.ar    1  UNL1        0.0178
      7 C         141.8028  142.8867  165.2660 C.ar    1  UNL1       -0.0230
      8 C         140.3993  142.9866  165.7854 C.ar    1  UNL1       -0.0216
      9 C         139.9891  142.1992  166.9944 C.ar    1  UNL1        0.0346
     10 C         140.9827  141.3119  167.6841 C.ar    1  UNL1        0.1640
     11 O         140.8694  140.4231  168.8871 O.2     1  UNL1       -0.4384
     12 C         139.2607  143.8048  165.2523 C.3     1  UNL1        0.0434
     13 C         139.2446  144.7253  164.0679 C.3     1  UNL1        0.0768
     14 N         140.3630  145.0547  163.1244 N.3     1  UNL1       -0.2720
     15 C         141.7739  144.5453  163.1319 C.3     1  UNL1        0.0768
     16 C         142.4146  143.5804  164.0851 C.3     1  UNL1        0.0434
     17 C         140.1910  145.6161  160.5934 C.3     1  UNL1        0.0294
     18 C         140.8149  144.2948  160.2544 C.3     1  UNL1        0.0666
     19 S         139.9458  143.1171  159.9263 S.3     1  UNL1       -0.0756
     20 C         139.1200  142.4723  160.9998 C.ar    1  UNL1        0.1933
     21 N         137.6950  142.8011  161.3331 N.ar    1  UNL1       -0.1220
     22 N         137.2686  141.9174  162.4677 N.ar    1  UNL1       -0.1250
     23 C         138.4301  141.0424  162.8355 C.ar    1  UNL1        0.2029
     24 N         139.5744  141.3853  161.9283 N.ar    1  UNL1       -0.2860
     25 C         140.9342  140.7524  161.9464 C.3     1  UNL1        0.1341
     26 C         138.4447  140.0064  163.9201 C.ar    1  UNL1        0.1964
     27 O         138.1796  140.2504  165.3761 O.2     1  UNL1       -0.4283
     28 C         138.2981  138.9393  166.0951 C.ar    1  UNL1        0.2849
     29 N         138.6365  137.8848  165.0833 N.ar    1  UNL1       -0.2085
     30 C         138.7271  138.5444  163.7391 C.ar    1  UNL1        0.1001
     31 C         139.0445  137.8616  162.4417 C.3     1  UNL1        0.0556
@<TRIPOS>BOND
     1     2     3    1
     2     3     4   ar
     3     4     5   ar
     4     5     6   ar
     5     6     7   ar
     6     7     8   ar
     7     8     9   ar
     8     9    10   ar
     9    10    11   ar
    10     8    12    1
    11    12    13    1
    12    13    14    1
    13    14     1    1
    14     1    17    1
    15    17    18    1
    16    18    19    1
    17    19    20    1
    18    20    21   ar
    19    21    22   ar
    20    22    23   ar
    21    23    26    1
    22    26    27   ar
    23    27    28   ar
    24    28    29   ar
    25    29    30   ar
    26    30    31    1
    27    23    24   ar
    28    24    25    1
    29    14    15    1
    30    15    16    1
    31    11     3   ar
    32    24    20   ar
    33    10     5   ar
    34    30    26   ar
    35    16     7    1
@<TRIPOS>MOLECULE
*****
 31 35 0 0 0
SMALL
GASTEIGER

@<TRIPOS>ATOM
      1 C         139.9467  146.1687  161.7825 C.3     1  UNL1        0.0730
      2 C         142.4130  138.9051  169.9327 C.3     1  UNL1        0.0950
      3 C         142.0824  139.8785  168.8404 C.ar    1  UNL1        0.2062
      4 N         140.7059  140.2289  168.3583 N.ar    1  UNL1       -0.2121
      5 C         140.8431  141.2394  167.2584 C.ar    1  UNL1        0.1182
      6 C         139.8261  141.9454  166.4113 C.ar    1  UNL1        0.0178
      7 C         140.2706  142.9256  165.3665 C.ar    1  UNL1       -0.0230
      8 C         141.7319  143.1998  165.1687 C.ar    1  UNL1       -0.0216
      9 C         142.7489  142.4939  166.0157 C.ar    1  UNL1        0.0346
     10 C         142.3045  141.5137  167.0606 C.ar    1  UNL1        0.1640
     11 O         143.0704  140.6726  168.0383 O.2     1  UNL1       -0.4384
     12 C         142.3847  144.1319  164.1914 C.3     1  UNL1        0.0434
     13 C         141.7372  145.0200  163.1705 C.3     1  UNL1        0.0768
     14 N         140.2772  145.1952  162.8748 N.3     1  UNL1       -0.2720
     15 C         139.1039  144.5257  163.5269 C.3     1  UNL1        0.0768
     16 C         139.1010  143.5156  164.6358 C.3     1  UNL1        0.0434
     17 C         139.8584  145.6990  160.3606 C.3     1  UNL1        0.0294
     18 C         141.1046  145.3181  159.6178 C.3     1  UNL1        0.0666
     19 S         141.3587  143.8823  159.2661 S.3     1  UNL1       -0.0756
     20 C         142.3895  143.0963  160.0210 C.ar    1  UNL1        0.1933
     21 N         143.8714  143.1383  159.7931 N.ar    1  UNL1       -0.1220
     22 N         144.5171  142.1983  160.7675 N.ar    1  UNL1       -0.1250
     23 C         143.4341  141.5754  161.5976 C.ar    1  UNL1        0.2029
     24 N         142.1191  142.1303  161.1362 N.ar    1  UNL1       -0.2860
     25 C         140.7707  141.7807  161.6925 C.3     1  UNL1        0.1341
     26 C         143.6314  140.5733  162.6963 C.ar    1  UNL1        0.1964
     27 O         142.7553  139.3887  162.9769 O.2     1  UNL1       -0.4283
     28 C         143.3219  138.6632  164.1613 C.ar    1  UNL1        0.2849
     29 N         144.5483  139.3995  164.6126 N.ar    1  UNL1       -0.2085
     30 C         144.7396  140.5801  163.7072 C.ar    1  UNL1        0.1001
     31 C         145.8451  141.5901  163.7970 C.3     1  UNL1        0.0556
@<TRIPOS>BOND
     1     2     3    1
     2     3     4   ar
     3     4     5   ar
     4     5     6   ar
     5     6     7   ar
     6     7     8   ar
     7     8     9   ar
     8     9    10   ar
     9    10    11   ar
    10     8    12    1
    11    12    13    1
    12    13    14    1
    13    14     1    1
    14     1    17    1
    15    17    18    1
    16    18    19    1
    17    19    20    1
    18    20    21   ar
    19    21    22   ar
    20    22    23   ar
    21    23    26    1
    22    26    27   ar
    23    27    28   ar
    24    28    29   ar
    25    29    30   ar
    26    30    31    1
    27    23    24   ar
    28    24    25    1
    29    14    15    1
    30    15    16    1
    31    11     3   ar
    32    24    20   ar
    33    10     5   ar
    34    30    26   ar
    35    16     7    1
@<TRIPOS>MOLECULE
*****
 31 35 0 0 0
SMALL
GASTEIGER

@<TRIPOS>ATOM
      1 C         143.0528  138.7401  167.2302 C.3     1  UNL1        0.0730
      2 C         142.6115  138.6341  156.0471 C.3     1  UNL1        0.0950
      3 C         142.6706  138.6483  157.5459 C.ar    1  UNL1        0.2062
      4 N         141.6200  138.1160  158.4749 N.ar    1  UNL1       -0.2121
      5 C         142.0908  138.3361  159.8819 C.ar    1  UNL1        0.1182
      6 C         141.4712  138.0143  161.2096 C.ar    1  UNL1        0.0178
      7 C         142.1933  138.3607  162.4779 C.ar    1  UNL1       -0.0230
      8 C         143.5348  139.0288  162.4186 C.ar    1  UNL1       -0.0216
      9 C         144.1545  139.3506  161.0910 C.ar    1  UNL1        0.0346
     10 C         143.4325  139.0042  159.8227 C.ar    1  UNL1        0.1640
     11 O         143.7908  139.1972  158.3789 O.2     1  UNL1       -0.4384
     12 C         144.4177  139.4566  163.5534 C.3     1  UNL1        0.0434
     13 C         144.1767  139.3217  165.0279 C.3     1  UNL1        0.0768
     14 N         142.9937  138.7259  165.7315 N.3     1  UNL1       -0.2720
     15 C         141.7592  138.1177  165.1346 C.3     1  UNL1        0.0768
     16 C         141.4030  137.9552  163.6866 C.3     1  UNL1        0.0434
     17 C         142.6080  139.9565  167.9870 C.3     1  UNL1        0.0294
     18 C         141.6502  139.8183  169.1331 C.3     1  UNL1        0.0666
     19 S         140.2151  140.2205  168.9638 S.3     1  UNL1       -0.0756
     20 C         139.6052  140.2647  167.5941 C.ar    1  UNL1        0.1933
     21 N         138.7773  139.1852  166.9624 N.ar    1  UNL1       -0.1220
     22 N         138.3764  139.6495  165.5935 N.ar    1  UNL1       -0.1250
     23 C         138.9566  141.0160  165.3793 C.ar    1  UNL1        0.2029
     24 N         139.7161  141.3963  166.6157 N.ar    1  UNL1       -0.2860
     25 C         140.4563  142.6823  166.8352 C.3     1  UNL1        0.1341
     26 C         138.8042  141.8551  164.1453 C.ar    1  UNL1        0.1964
     27 O         137.5265  142.4577  163.6411 O.2     1  UNL1       -0.4283
     28 C         137.8353  143.2139  162.3830 C.ar    1  UNL1        0.2849
     29 N         139.3040  143.0785  162.1095 N.ar    1  UNL1       -0.2085
     30 C         139.9028  142.2387  163.1987 C.ar    1  UNL1        0.1001
     31 C         141.3467  141.8507  163.3199 C.3     1  UNL1        0.0556
@<TRIPOS>BOND
     1     2     3    1
     2     3     4   ar
     3     4     5   ar
     4     5     6   ar
     5     6     7   ar
     6     7     8   ar
     7     8     9   ar
     8     9    10   ar
     9    10    11   ar
    10     8    12    1
    11    12    13    1
    12    13    14    1
    13    14     1    1
    14     1    17    1
    15    17    18    1
    16    18    19    1
    17    19    20    1
    18    20    21   ar
    19    21    22   ar
    20    22    23   ar
    21    23    26    1
    22    26    27   ar
    23    27    28   ar
    24    28    29   ar
    25    29    30   ar
    26    30    31    1
    27    23    24   ar
    28    24    25    1
    29    14    15    1
    30    15    16    1
    31    11     3   ar
    32    24    20   ar
    33    10     5   ar
    34    30    26   ar
    35    16     7    1
@<TRIPOS>MOLECULE
*****
 31 35 0 0 0
SMALL
GASTEIGER

@<TRIPOS>ATOM
      1 C         139.5930  138.7890  159.0886 C.3     1  UNL1        0.0730
      2 C         139.3559  140.5749  170.1350 C.3     1  UNL1        0.0950
      3 C         139.3877  140.3355  168.6546 C.ar    1  UNL1        0.2062
      4 N         138.7077  139.2131  167.9280 N.ar    1  UNL1       -0.2121
      5 C         139.0048  139.3605  166.4652 C.ar    1  UNL1        0.1182
      6 C         138.6005  138.5464  165.2719 C.ar    1  UNL1        0.0178
      7 C         139.0598  138.9459  163.9010 C.ar    1  UNL1       -0.0230
      8 C         139.9234  140.1594  163.7234 C.ar    1  UNL1       -0.0216
      9 C         140.3277  140.9734  164.9166 C.ar    1  UNL1        0.0346
     10 C         139.8684  140.5740  166.2876 C.ar    1  UNL1        0.1640
     11 O         140.1051  141.1766  167.6407 O.2     1  UNL1       -0.4384
     12 C         140.4867  140.7289  162.4551 C.3     1  UNL1        0.0434
     13 C         140.3255  140.2255  161.0513 C.3     1  UNL1        0.0768
     14 N         139.5612  139.0284  160.5691 N.3     1  UNL1       -0.2720
     15 C         138.7693  138.0388  161.3715 C.3     1  UNL1        0.0768
     16 C         138.5462  138.0022  162.8543 C.3     1  UNL1        0.0434
     17 C         140.3968  139.6914  158.2000 C.3     1  UNL1        0.0294
     18 C         141.2834  139.1058  157.1412 C.3     1  UNL1        0.0666
     19 S         142.7038  138.7492  157.4654 S.3     1  UNL1       -0.0756
     20 C         143.1548  138.6905  158.8948 C.ar    1  UNL1        0.1933
     21 N         143.2286  137.4577  159.7462 N.ar    1  UNL1       -0.1220
     22 N         143.7306  137.8596  161.1014 N.ar    1  UNL1       -0.1250
     23 C         143.9671  139.3408  161.0875 C.ar    1  UNL1        0.2029
     24 N         143.6113  139.8543  159.7238 N.ar    1  UNL1       -0.2860
     25 C         143.6968  141.2812  159.2690 C.3     1  UNL1        0.1341
     26 C         144.4710  140.1640  162.2358 C.ar    1  UNL1        0.1964
     27 O         145.3637  141.3651  162.1347 O.2     1  UNL1       -0.4283
     28 C         145.6151  141.8740  163.5232 C.ar    1  UNL1        0.2849
     29 N         144.8777  140.9873  164.4824 N.ar    1  UNL1       -0.2085
     30 C         144.1706  139.9304  163.6867 C.ar    1  UNL1        0.1001
     31 C         143.3137  138.8328  164.2442 C.3     1  UNL1        0.0556
@<TRIPOS>BOND
     1     2     3    1
     2     3     4   ar
     3     4     5   ar
     4     5     6   ar
     5     6     7   ar
     6     7     8   ar
     7     8     9   ar
     8     9    10   ar
     9    10    11   ar
    10     8    12    1
    11    12    13    1
    12    13    14    1
    13    14     1    1
    14     1    17    1
    15    17    18    1
    16    18    19    1
    17    19    20    1
    18    20    21   ar
    19    21    22   ar
    20    22    23   ar
    21    23    26    1
    22    26    27   ar
    23    27    28   ar
    24    28    29   ar
    25    29    30   ar
    26    30    31    1
    27    23    24   ar
    28    24    25    1
    29    14    15    1
    30    15    16    1
    31    11     3   ar
    32    24    20   ar
    33    10     5   ar
    34    30    26   ar
    35    16     7    1
@<TRIPOS>MOLECULE
*****
 31 35 0 0 0
SMALL
GASTEIGER

@<TRIPOS>ATOM
      1 C         138.4043  139.1300  167.1784 C.3     1  UNL1        0.0730
      2 C         139.3035  139.5663  156.0309 C.3     1  UNL1        0.0950
      3 C         139.1830  139.5079  157.5249 C.ar    1  UNL1        0.2062
      4 N         138.5098  140.5270  158.3957 N.ar    1  UNL1       -0.2121
      5 C         138.6253  140.0689  159.8194 C.ar    1  UNL1        0.1182
      6 C         138.1487  140.6694  161.1087 C.ar    1  UNL1        0.0178
      7 C         138.4166  139.9676  162.4071 C.ar    1  UNL1       -0.0230
      8 C         139.1610  138.6655  162.4161 C.ar    1  UNL1       -0.0216
      9 C         139.6376  138.0650  161.1269 C.ar    1  UNL1        0.0346
     10 C         139.3698  138.7668  159.8285 C.ar    1  UNL1        0.1640
     11 O         139.7144  138.4200  158.4104 O.2     1  UNL1       -0.4384
     12 C         139.5310  137.8078  163.5899 C.3     1  UNL1        0.0434
     13 C         139.2478  138.0406  165.0445 C.3     1  UNL1        0.0768
     14 N         138.5248  139.1884  165.6844 N.3     1  UNL1       -0.2720
     15 C         137.9063  140.3871  165.0281 C.3     1  UNL1        0.0768
     16 C         137.8581  140.7338  163.5695 C.3     1  UNL1        0.0434
     17 C         139.3835  139.8714  168.0396 C.3     1  UNL1        0.0294
     18 C         140.0131  141.1378  167.5398 C.3     1  UNL1        0.0666
     19 S         141.5021  141.2229  167.3802 S.3     1  UNL1       -0.0756
     20 C         142.2132  140.2752  166.4603 C.ar    1  UNL1        0.1933
     21 N         143.0348  139.0915  166.8772 N.ar    1  UNL1       -0.1220
     22 N         143.5569  138.4295  165.6366 N.ar    1  UNL1       -0.1250
     23 C         143.0580  139.2042  164.4529 C.ar    1  UNL1        0.2029
     24 N         142.2276  140.3449  164.9620 N.ar    1  UNL1       -0.2860
     25 C         141.5334  141.3744  164.1205 C.3     1  UNL1        0.1341
     26 C         143.3401  138.8928  163.0130 C.ar    1  UNL1        0.1964
     27 O         142.8449  137.6961  162.2563 O.2     1  UNL1       -0.4283
     28 C         143.3656  137.7871  160.8525 C.ar    1  UNL1        0.2849
     29 N         144.1827  139.0401  160.7416 N.ar    1  UNL1       -0.2085
     30 C         144.1669  139.7235  162.0768 C.ar    1  UNL1        0.1001
     31 C         144.8569  141.0114  162.4163 C.3     1  UNL1        0.0556
@<TRIPOS>BOND
     1     2     3    1
     2     3     4   ar
     3     4     5   ar
     4     5     6   ar
     5     6     7   ar
     6     7     8   ar
     7     8     9   ar
     8     9    10   ar
     9    10    11   ar
    10     8    12    1
    11    12    13    1
    12    13    14    1
    13    14     1    1
    14     1    17    1
    15    17    18    1
    16    18    19    1
    17    19    20    1
    18    20    21   ar
    19    21    22   ar
    20    22    23   ar
    21    23    26    1
    22    26    27   ar
    23    27    28   ar
    24    28    29   ar
    25    29    30   ar
    26    30    31    1
    27    23    24   ar
    28    24    25    1
    29    14    15    1
    30    15    16    1
    31    11     3   ar
    32    24    20   ar
    33    10     5   ar
    34    30    26   ar
    35    16     7    1
@<TRIPOS>MOLECULE
*****
 31 35 0 0 0
SMALL
GASTEIGER

@<TRIPOS>ATOM
      1 C         137.9252  139.1304  160.8258 C.3     1  UNL1        0.0730
      2 C         143.0999  139.9853  170.7131 C.3     1  UNL1        0.0950
      3 C         142.4064  139.8707  169.3879 C.ar    1  UNL1        0.2062
      4 N         142.9736  139.2479  168.1468 N.ar    1  UNL1       -0.2121
      5 C         141.9417  139.3511  167.0632 C.ar    1  UNL1        0.1182
      6 C         141.9436  138.9086  165.6299 C.ar    1  UNL1        0.0178
      7 C         140.7404  139.1527  164.7680 C.ar    1  UNL1       -0.0230
      8 C         139.5355  139.8393  165.3393 C.ar    1  UNL1       -0.0216
      9 C         139.5335  140.2818  166.7725 C.ar    1  UNL1        0.0346
     10 C         140.7366  140.0377  167.6345 C.ar    1  UNL1        0.1640
     11 O         141.0239  140.3588  169.0713 O.2     1  UNL1       -0.4384
     12 C         138.2418  140.1778  164.6595 C.3     1  UNL1        0.0434
     13 C         137.8339  139.9133  163.2404 C.3     1  UNL1        0.0768
     14 N         138.6187  139.2450  162.1509 N.3     1  UNL1       -0.2720
     15 C         140.0053  138.6761  162.2110 C.3     1  UNL1        0.0768
     16 C         140.9496  138.6350  163.3758 C.3     1  UNL1        0.0434
     17 C         138.6241  139.5689  159.5730 C.3     1  UNL1        0.0294
     18 C         138.1368  140.7743  158.8249 C.3     1  UNL1        0.0666
     19 S         138.7085  142.1273  159.1289 S.3     1  UNL1       -0.0756
     20 C         139.0358  142.5026  160.5439 C.ar    1  UNL1        0.1933
     21 N         138.1319  143.2298  161.4947 N.ar    1  UNL1       -0.1220
     22 N         138.8618  143.3933  162.7949 N.ar    1  UNL1       -0.1250
     23 C         140.2168  142.7670  162.6476 C.ar    1  UNL1        0.2029
     24 N         140.3243  142.2165  161.2564 N.ar    1  UNL1       -0.2860
     25 C         141.5120  141.5049  160.6791 C.3     1  UNL1        0.1341
     26 C         141.2780  142.7025  163.7058 C.ar    1  UNL1        0.1964
     27 O         142.6797  142.2024  163.5193 O.2     1  UNL1       -0.4283
     28 C         143.3919  142.3176  164.8345 C.ar    1  UNL1        0.2849
     29 N         142.4301  142.8889  165.8338 N.ar    1  UNL1       -0.2085
     30 C         141.1237  143.1268  165.1362 C.ar    1  UNL1        0.1001
     31 C         139.8811  143.6902  165.7597 C.3     1  UNL1        0.0556
@<TRIPOS>BOND
     1     2     3    1
     2     3     4   ar
     3     4     5   ar
     4     5     6   ar
     5     6     7   ar
     6     7     8   ar
     7     8     9   ar
     8     9    10   ar
     9    10    11   ar
    10     8    12    1
    11    12    13    1
    12    13    14    1
    13    14     1    1
    14     1    17    1
    15    17    18    1
    16    18    19    1
    17    19    20    1
    18    20    21   ar
    19    21    22   ar
    20    22    23   ar
    21    23    26    1
    22    26    27   ar
    23    27    28   ar
    24    28    29   ar
    25    29    30   ar
    26    30    31    1
    27    23    24   ar
    28    24    25    1
    29    14    15    1
    30    15    16    1
    31    11     3   ar
    32    24    20   ar
    33    10     5   ar
    34    30    26   ar
    35    16     7    1
@<TRIPOS>MOLECULE
*****
 31 35 0 0 0
SMALL
GASTEIGER

@<TRIPOS>ATOM
      1 C         144.0014  137.9668  161.4226 C.3     1  UNL1        0.0730
      2 C         139.8079  142.8169  170.5964 C.3     1  UNL1        0.0950
      3 C         140.3700  142.1669  169.3669 C.ar    1  UNL1        0.2062
      4 N         141.6330  142.5610  168.6602 N.ar    1  UNL1       -0.2121
      5 C         141.8112  141.6463  167.4848 C.ar    1  UNL1        0.1182
      6 C         142.8744  141.5631  166.4299 C.ar    1  UNL1        0.0178
      7 C         142.7846  140.5204  165.3553 C.ar    1  UNL1       -0.0230
      8 C         141.6318  139.5611  165.3355 C.ar    1  UNL1       -0.0216
      9 C         140.5686  139.6443  166.3904 C.ar    1  UNL1        0.0346
     10 C         140.6583  140.6869  167.4650 C.ar    1  UNL1        0.1640
     11 O         139.7676  141.0087  168.6283 O.2     1  UNL1       -0.4384
     12 C         141.3523  138.4547  164.3619 C.3     1  UNL1        0.0434
     13 C         142.1569  138.0344  163.1676 C.3     1  UNL1        0.0768
     14 N         143.4393  138.6168  162.6521 N.3     1  UNL1       -0.2720
     15 C         144.2343  139.7632  163.2033 C.3     1  UNL1        0.0768
     16 C         143.9429  140.6104  164.4064 C.3     1  UNL1        0.0434
     17 C         143.0958  137.6146  160.2797 C.3     1  UNL1        0.0294
     18 C         142.6898  138.6682  159.2922 C.3     1  UNL1        0.0666
     19 S         141.4967  139.5344  159.5678 S.3     1  UNL1       -0.0756
     20 C         141.6238  140.7177  160.4809 C.ar    1  UNL1        0.1933
     21 N         142.7759  141.6771  160.5257 N.ar    1  UNL1       -0.1220
     22 N         142.4853  142.7016  161.5821 N.ar    1  UNL1       -0.1250
     23 C         141.1534  142.3753  162.1902 C.ar    1  UNL1        0.2029
     24 N         140.6210  141.1492  161.5096 N.ar    1  UNL1       -0.2860
     25 C         139.3150  140.4733  161.8058 C.3     1  UNL1        0.1341
     26 C         140.4734  143.1408  163.2863 C.ar    1  UNL1        0.1964
     27 O         139.9891  142.5743  164.5880 O.2     1  UNL1       -0.4283
     28 C         139.3746  143.6906  165.3795 C.ar    1  UNL1        0.2849
     29 N         139.4792  144.9470  164.5669 N.ar    1  UNL1       -0.2085
     30 C         140.1583  144.6073  163.2732 C.ar    1  UNL1        0.1001
     31 C         140.4678  145.5658  162.1617 C.3     1  UNL1        0.0556
@<TRIPOS>BOND
     1     2     3    1
     2     3     4   ar
     3     4     5   ar
     4     5     6   ar
     5     6     7   ar
     6     7     8   ar
     7     8     9   ar
     8     9    10   ar
     9    10    11   ar
    10     8    12    1
    11    12    13    1
    12    13    14    1
    13    14     1    1
    14     1    17    1
    15    17    18    1
    16    18    19    1
    17    19    20    1
    18    20    21   ar
    19    21    22   ar
    20    22    23   ar
    21    23    26    1
    22    26    27   ar
    23    27    28   ar
    24    28    29   ar
    25    29    30   ar
    26    30    31    1
    27    23    24   ar
    28    24    25    1
    29    14    15    1
    30    15    16    1
    31    11     3   ar
    32    24    20   ar
    33    10     5   ar
    34    30    26   ar
    35    16     7    1
@<TRIPOS>MOLECULE
*****
 31 35 0 0 0
SMALL
GASTEIGER

@<TRIPOS>ATOM
      1 C         138.3556  138.6030  160.6524 C.3     1  UNL1        0.0730
      2 C         143.0545  140.1633  170.6900 C.3     1  UNL1        0.0950
      3 C         142.4248  139.9542  169.3448 C.ar    1  UNL1        0.2062
      4 N         143.0122  139.1708  168.2084 N.ar    1  UNL1       -0.2121
      5 C         142.0475  139.2242  167.0611 C.ar    1  UNL1        0.1182
      6 C         142.0939  138.6349  165.6824 C.ar    1  UNL1        0.0178
      7 C         140.9566  138.8620  164.7310 C.ar    1  UNL1       -0.0230
      8 C         139.7731  139.6784  165.1582 C.ar    1  UNL1       -0.0216
      9 C         139.7266  140.2677  166.5368 C.ar    1  UNL1        0.0346
     10 C         140.8638  140.0406  167.4882 C.ar    1  UNL1        0.1640
     11 O         141.0970  140.4918  168.8996 O.2     1  UNL1       -0.4384
     12 C         138.5427  140.0239  164.3728 C.3     1  UNL1        0.0434
     13 C         138.1921  139.6383  162.9661 C.3     1  UNL1        0.0768
     14 N         138.9853  138.8121  161.9977 N.3     1  UNL1       -0.2720
     15 C         140.3250  138.1673  162.1964 C.3     1  UNL1        0.0768
     16 C         141.2023  138.1895  163.4129 C.3     1  UNL1        0.0434
     17 C         138.6606  139.5462  159.5266 C.3     1  UNL1        0.0294
     18 C         139.5581  139.1114  158.4061 C.3     1  UNL1        0.0666
     19 S         140.8255  139.8630  158.1257 S.3     1  UNL1       -0.0756
     20 C         142.0316  139.6491  158.9915 C.ar    1  UNL1        0.1933
     21 N         143.1337  138.6631  158.7401 N.ar    1  UNL1       -0.1220
     22 N         144.1306  138.7882  159.8538 N.ar    1  UNL1       -0.1250
     23 C         143.6446  139.8515  160.7936 C.ar    1  UNL1        0.2029
     24 N         142.3473  140.3836  160.2606 N.ar    1  UNL1       -0.2860
     25 C         141.5125  141.4610  160.8869 C.3     1  UNL1        0.1341
     26 C         144.3347  140.3034  162.0464 C.ar    1  UNL1        0.1964
     27 O         144.5443  139.4811  163.2833 O.2     1  UNL1       -0.4283
     28 C         145.2755  140.3265  164.2836 C.ar    1  UNL1        0.2849
     29 N         145.5178  141.6713  163.6650 N.ar    1  UNL1       -0.2085
     30 C         144.9364  141.6570  162.2823 C.ar    1  UNL1        0.1001
     31 C         144.9537  142.7965  161.3069 C.3     1  UNL1        0.0556
@<TRIPOS>BOND
     1     2     3    1
     2     3     4   ar
     3     4     5   ar
     4     5     6   ar
     5     6     7   ar
     6     7     8   ar
     7     8     9   ar
     8     9    10   ar
     9    10    11   ar
    10     8    12    1
    11    12    13    1
    12    13    14    1
    13    14     1    1
    14     1    17    1
    15    17    18    1
    16    18    19    1
    17    19    20    1
    18    20    21   ar
    19    21    22   ar
    20    22    23   ar
    21    23    26    1
    22    26    27   ar
    23    27    28   ar
    24    28    29   ar
    25    29    30   ar
    26    30    31    1
    27    23    24   ar
    28    24    25    1
    29    14    15    1
    30    15    16    1
    31    11     3   ar
    32    24    20   ar
    33    10     5   ar
    34    30    26   ar
    35    16     7    1
