@<TRIPOS>MOLECULE
*****
 24 26 0 0 0
SMALL
GASTEIGER

@<TRIPOS>ATOM
      1 N         137.5849  144.5796  162.5340 N.pl3   1  UNL1       -0.3287
      2 C         138.9821  144.4054  163.0511 C.ar    1  UNL1        0.1959
      3 N         140.1793  145.2133  162.6460 N.ar    1  UNL1       -0.2123
      4 C         141.3646  144.6999  163.4086 C.ar    1  UNL1        0.1182
      5 C         142.8069  145.1117  163.4182 C.ar    1  UNL1        0.0239
      6 C         143.7846  144.3982  164.3042 C.ar    1  UNL1        0.0223
      7 C         143.3200  143.2730  165.1806 C.ar    1  UNL1        0.1006
      8 N         141.8777  142.8613  165.1710 N.ar    1  UNL1       -0.2251
      9 C         140.9000  143.5747  164.2850 C.ar    1  UNL1        0.1637
     10 N         139.4276  143.3927  164.0640 N.ar    1  UNL1       -0.2825
     11 H         137.3905  145.2763  161.8661 H       1  UNL1        0.1451
     12 H         136.8623  143.9972  162.8624 H       1  UNL1        0.1451
     13 C         138.5539  142.3764  164.7377 C.3     1  UNL1        0.1438
     14 C         137.9943  141.2287  163.9507 C.3     1  UNL1        0.1562
     15 O         136.7206  141.4000  163.1771 O.3     1  UNL1       -0.3780
     16 H         136.5004  140.5686  162.7286 H       1  UNL1        0.2109
     17 C         138.7084  139.9096  163.9371 C.ar    1  UNL1        0.0176
     18 C         138.5123  138.9390  165.0639 C.ar    1  UNL1       -0.0010
     19 C         139.2263  137.6199  165.0503 C.ar    1  UNL1        0.0007
     20 C         140.1364  137.2714  163.9100 C.ar    1  UNL1        0.0122
     21 C         140.3325  138.2420  162.7833 C.ar    1  UNL1        0.0680
     22 CL        141.2425  137.8936  161.6430 Cl      1  UNL1       -0.0814
     23 C         139.6185  139.5611  162.7969 C.ar    1  UNL1        0.0665
     24 CL        139.8145  140.5317  161.6702 Cl      1  UNL1       -0.0816
@<TRIPOS>BOND
     1     1     2    1
     2     2     3   ar
     3     3     4   ar
     4     4     5   ar
     5     5     6   ar
     6     6     7   ar
     7     7     8   ar
     8     8     9   ar
     9     9    10   ar
    10    10    13    1
    11    13    14    1
    12    14    15    1
    13    14    17    1
    14    17    18   ar
    15    18    19   ar
    16    19    20   ar
    17    20    21   ar
    18    21    22    1
    19    21    23   ar
    20    23    24    1
    21    10     2   ar
    22    23    17   ar
    23     9     4   ar
    24     1    11    1
    25     1    12    1
    26    15    16    1
@<TRIPOS>MOLECULE
*****
 24 26 0 0 0
SMALL
GASTEIGER

@<TRIPOS>ATOM
      1 N         138.4162  137.7074  161.4550 N.pl3   1  UNL1       -0.3287
      2 C         139.7269  138.3093  161.8670 C.ar    1  UNL1        0.1959
      3 N         141.0327  137.5810  161.9869 N.ar    1  UNL1       -0.2123
      4 C         142.0748  138.5668  162.4255 C.ar    1  UNL1        0.1182
      5 C         143.5407  138.4192  162.7067 C.ar    1  UNL1        0.0239
      6 C         144.3449  139.6093  163.1390 C.ar    1  UNL1        0.0223
      7 C         143.6831  140.9469  163.2901 C.ar    1  UNL1        0.1006
      8 N         142.2172  141.0945  163.0089 N.ar    1  UNL1       -0.2251
      9 C         141.4130  139.9044  162.5765 C.ar    1  UNL1        0.1637
     10 N         139.9619  139.7453  162.2314 N.ar    1  UNL1       -0.2825
     11 H         138.3622  136.7495  161.2339 H       1  UNL1        0.1451
     12 H         137.6099  138.2701  161.4057 H       1  UNL1        0.1451
     13 C         138.9275  140.8314  162.2478 C.3     1  UNL1        0.1438
     14 C         138.0163  140.9816  163.4296 C.3     1  UNL1        0.1562
     15 O         136.5823  141.3722  163.2263 O.3     1  UNL1       -0.3780
     16 H         136.1364  141.4246  164.0861 H       1  UNL1        0.2109
     17 C         138.5387  140.7411  164.8150 C.ar    1  UNL1        0.0176
     18 C         138.2085  139.4645  165.5300 C.ar    1  UNL1       -0.0010
     19 C         138.7309  139.2240  166.9154 C.ar    1  UNL1        0.0007
     20 C         139.5837  140.2601  167.5857 C.ar    1  UNL1        0.0122
     21 C         139.9140  141.5366  166.8706 C.ar    1  UNL1        0.0680
     22 CL        140.7668  142.5728  167.5409 Cl      1  UNL1       -0.0814
     23 C         139.3915  141.7771  165.4853 C.ar    1  UNL1        0.0665
     24 CL        139.7218  143.0537  164.7702 Cl      1  UNL1       -0.0816
@<TRIPOS>BOND
     1     1     2    1
     2     2     3   ar
     3     3     4   ar
     4     4     5   ar
     5     5     6   ar
     6     6     7   ar
     7     7     8   ar
     8     8     9   ar
     9     9    10   ar
    10    10    13    1
    11    13    14    1
    12    14    15    1
    13    14    17    1
    14    17    18   ar
    15    18    19   ar
    16    19    20   ar
    17    20    21   ar
    18    21    22    1
    19    21    23   ar
    20    23    24    1
    21    10     2   ar
    22    23    17   ar
    23     9     4   ar
    24     1    11    1
    25     1    12    1
    26    15    16    1
@<TRIPOS>MOLECULE
*****
 24 26 0 0 0
SMALL
GASTEIGER

@<TRIPOS>ATOM
      1 N         137.4179  139.0232  161.7329 N.pl3   1  UNL1       -0.3287
      2 C         137.9406  140.2897  162.3434 C.ar    1  UNL1        0.1959
      3 N         137.1688  141.5622  162.5308 N.ar    1  UNL1       -0.2123
      4 C         138.0782  142.5650  163.1769 C.ar    1  UNL1        0.1182
      5 C         137.8640  143.9882  163.5995 C.ar    1  UNL1        0.0239
      6 C         138.9836  144.7586  164.2342 C.ar    1  UNL1        0.0223
      7 C         140.3174  144.1059  164.4461 C.ar    1  UNL1        0.1006
      8 N         140.5316  142.6828  164.0235 N.ar    1  UNL1       -0.2251
      9 C         139.4120  141.9123  163.3888 C.ar    1  UNL1        0.1637
     10 N         139.3269  140.5061  162.8737 N.ar    1  UNL1       -0.2825
     11 H         136.4882  138.9785  161.4121 H       1  UNL1        0.1451
     12 H         138.0044  138.2365  161.6531 H       1  UNL1        0.1451
     13 C         140.4340  139.4940  162.8867 C.3     1  UNL1        0.1438
     14 C         140.5685  138.5443  164.0398 C.3     1  UNL1        0.1562
     15 O         141.4187  137.3158  163.9045 O.3     1  UNL1       -0.3780
     16 H         141.3974  136.8148  164.7349 H       1  UNL1        0.2109
     17 C         139.8529  138.8229  165.3284 C.ar    1  UNL1        0.0176
     18 C         138.4791  138.2666  165.5588 C.ar    1  UNL1       -0.0010
     19 C         137.7636  138.5452  166.8474 C.ar    1  UNL1        0.0007
     20 C         138.4219  139.3801  167.9055 C.ar    1  UNL1        0.0122
     21 C         139.7957  139.9364  167.6751 C.ar    1  UNL1        0.0680
     22 CL        140.4540  140.7713  168.7331 Cl      1  UNL1       -0.0814
     23 C         140.5112  139.6578  166.3865 C.ar    1  UNL1        0.0665
     24 CL        141.8851  140.2141  166.1560 Cl      1  UNL1       -0.0816
@<TRIPOS>BOND
     1     1     2    1
     2     2     3   ar
     3     3     4   ar
     4     4     5   ar
     5     5     6   ar
     6     6     7   ar
     7     7     8   ar
     8     8     9   ar
     9     9    10   ar
    10    10    13    1
    11    13    14    1
    12    14    15    1
    13    14    17    1
    14    17    18   ar
    15    18    19   ar
    16    19    20   ar
    17    20    21   ar
    18    21    22    1
    19    21    23   ar
    20    23    24    1
    21    10     2   ar
    22    23    17   ar
    23     9     4   ar
    24     1    11    1
    25     1    12    1
    26    15    16    1
@<TRIPOS>MOLECULE
*****
 24 26 0 0 0
SMALL
GASTEIGER

@<TRIPOS>ATOM
      1 N         137.3893  139.0698  161.6002 N.pl3   1  UNL1       -0.3287
      2 C         137.7574  140.2593  162.4366 C.ar    1  UNL1        0.1959
      3 N         137.3315  141.6763  162.1900 N.ar    1  UNL1       -0.2123
      4 C         137.9269  142.5335  163.2673 C.ar    1  UNL1        0.1182
      5 C         137.8487  144.0073  163.5353 C.ar    1  UNL1        0.0239
      6 C         138.5644  144.5938  164.7158 C.ar    1  UNL1        0.0223
      7 C         139.3583  143.7066  165.6283 C.ar    1  UNL1        0.1006
      8 N         139.4365  142.2329  165.3603 N.ar    1  UNL1       -0.2251
      9 C         138.7208  141.6463  164.1798 C.ar    1  UNL1        0.1637
     10 N         138.6160  140.2408  163.6663 N.ar    1  UNL1       -0.2825
     11 H         136.8172  139.1837  160.8071 H       1  UNL1        0.1451
     12 H         137.7197  138.1751  161.8444 H       1  UNL1        0.1451
     13 C         139.2573  139.0295  164.2757 C.3     1  UNL1        0.1438
     14 C         140.4014  138.3555  163.5782 C.3     1  UNL1        0.1562
     15 O         140.1336  137.3190  162.5275 O.3     1  UNL1       -0.3780
     16 H         140.9756  136.9859  162.1798 H       1  UNL1        0.2109
     17 C         141.8135  138.7179  163.9313 C.ar    1  UNL1        0.0176
     18 C         142.4023  138.2602  165.2327 C.ar    1  UNL1       -0.0010
     19 C         143.8144  138.6226  165.5858 C.ar    1  UNL1        0.0007
     20 C         144.6377  139.4428  164.6373 C.ar    1  UNL1        0.0122
     21 C         144.0489  139.9005  163.3359 C.ar    1  UNL1        0.0680
     22 CL        144.8722  140.7207  162.3874 Cl      1  UNL1       -0.0814
     23 C         142.6368  139.5381  162.9828 C.ar    1  UNL1        0.0665
     24 CL        142.0481  139.9958  161.6814 Cl      1  UNL1       -0.0816
@<TRIPOS>BOND
     1     1     2    1
     2     2     3   ar
     3     3     4   ar
     4     4     5   ar
     5     5     6   ar
     6     6     7   ar
     7     7     8   ar
     8     8     9   ar
     9     9    10   ar
    10    10    13    1
    11    13    14    1
    12    14    15    1
    13    14    17    1
    14    17    18   ar
    15    18    19   ar
    16    19    20   ar
    17    20    21   ar
    18    21    22    1
    19    21    23   ar
    20    23    24    1
    21    10     2   ar
    22    23    17   ar
    23     9     4   ar
    24     1    11    1
    25     1    12    1
    26    15    16    1
@<TRIPOS>MOLECULE
*****
 24 26 0 0 0
SMALL
GASTEIGER

@<TRIPOS>ATOM
      1 N         137.5925  144.4706  162.3811 N.pl3   1  UNL1       -0.3287
      2 C         137.8041  142.9858  162.3540 C.ar    1  UNL1        0.1959
      3 N         137.7341  142.1072  161.1403 N.ar    1  UNL1       -0.2123
      4 C         138.0096  140.6973  161.5721 C.ar    1  UNL1        0.1182
      5 C         138.0727  139.4079  160.8083 C.ar    1  UNL1        0.0239
      6 C         138.3761  138.1257  161.5252 C.ar    1  UNL1        0.0223
      7 C         138.6164  138.1330  163.0058 C.ar    1  UNL1        0.1006
      8 N         138.5533  139.4224  163.7695 N.ar    1  UNL1       -0.2251
      9 C         138.2499  140.7046  163.0527 C.ar    1  UNL1        0.1637
     10 N         138.1229  142.1189  163.5359 N.ar    1  UNL1       -0.2825
     11 H         137.3865  144.9537  161.5484 H       1  UNL1        0.1451
     12 H         137.6596  144.9619  163.2315 H       1  UNL1        0.1451
     13 C         138.2860  142.5846  164.9524 C.3     1  UNL1        0.1438
     14 C         139.3546  143.5793  165.2966 C.3     1  UNL1        0.1562
     15 O         139.1478  145.0352  165.0000 O.3     1  UNL1       -0.3780
     16 H         139.9283  145.5368  165.2828 H       1  UNL1        0.2109
     17 C         140.6301  143.1184  165.9374 C.ar    1  UNL1        0.0176
     18 C         140.6421  142.7216  167.3839 C.ar    1  UNL1       -0.0010
     19 C         141.9176  142.2607  168.0246 C.ar    1  UNL1        0.0007
     20 C         143.1812  142.1965  167.2189 C.ar    1  UNL1        0.0122
     21 C         143.1692  142.5933  165.7724 C.ar    1  UNL1        0.0680
     22 CL        144.4327  142.5291  164.9665 Cl      1  UNL1       -0.0814
     23 C         141.8937  143.0542  165.1316 C.ar    1  UNL1        0.0665
     24 CL        141.8817  143.4510  163.6851 Cl      1  UNL1       -0.0816
@<TRIPOS>BOND
     1     1     2    1
     2     2     3   ar
     3     3     4   ar
     4     4     5   ar
     5     5     6   ar
     6     6     7   ar
     7     7     8   ar
     8     8     9   ar
     9     9    10   ar
    10    10    13    1
    11    13    14    1
    12    14    15    1
    13    14    17    1
    14    17    18   ar
    15    18    19   ar
    16    19    20   ar
    17    20    21   ar
    18    21    22    1
    19    21    23   ar
    20    23    24    1
    21    10     2   ar
    22    23    17   ar
    23     9     4   ar
    24     1    11    1
    25     1    12    1
    26    15    16    1
@<TRIPOS>MOLECULE
*****
 24 26 0 0 0
SMALL
GASTEIGER

@<TRIPOS>ATOM
      1 N         138.6573  137.5680  162.2257 N.pl3   1  UNL1       -0.3287
      2 C         139.5775  137.9969  163.3299 C.ar    1  UNL1        0.1959
      3 N         140.9457  137.4455  163.6017 N.ar    1  UNL1       -0.2123
      4 C         141.5048  138.1604  164.7961 C.ar    1  UNL1        0.1182
      5 C         142.8130  138.0352  165.5191 C.ar    1  UNL1        0.0239
      6 C         143.0985  138.9033  166.7086 C.ar    1  UNL1        0.0223
      7 C         142.0758  139.8965  167.1750 C.ar    1  UNL1        0.1006
      8 N         140.7676  140.0217  166.4519 N.ar    1  UNL1       -0.2251
      9 C         140.4821  139.1536  165.2624 C.ar    1  UNL1        0.1637
     10 N         139.2910  139.0526  164.3563 N.ar    1  UNL1       -0.2825
     11 H         138.9367  136.8627  161.5982 H       1  UNL1        0.1451
     12 H         137.7741  137.9918  162.1284 H       1  UNL1        0.1451
     13 C         138.0340  139.8647  164.4586 C.3     1  UNL1        0.1438
     14 C         137.8161  141.0288  163.5382 C.3     1  UNL1        0.1562
     15 O         136.8949  140.8928  162.3621 O.3     1  UNL1       -0.3780
     16 H         136.8672  141.7309  161.8745 H       1  UNL1        0.2109
     17 C         138.5192  142.3289  163.7936 C.ar    1  UNL1        0.0176
     18 C         137.8766  143.3717  164.6593 C.ar    1  UNL1       -0.0010
     19 C         138.5797  144.6718  164.9148 C.ar    1  UNL1        0.0007
     20 C         139.9255  144.9292  164.3044 C.ar    1  UNL1        0.0122
     21 C         140.5682  143.8864  163.4387 C.ar    1  UNL1        0.0680
     22 CL        141.9140  144.1436  162.8283 Cl      1  UNL1       -0.0814
     23 C         139.8650  142.5863  163.1832 C.ar    1  UNL1        0.0665
     24 CL        140.5077  141.5435  162.3175 Cl      1  UNL1       -0.0816
@<TRIPOS>BOND
     1     1     2    1
     2     2     3   ar
     3     3     4   ar
     4     4     5   ar
     5     5     6   ar
     6     6     7   ar
     7     7     8   ar
     8     8     9   ar
     9     9    10   ar
    10    10    13    1
    11    13    14    1
    12    14    15    1
    13    14    17    1
    14    17    18   ar
    15    18    19   ar
    16    19    20   ar
    17    20    21   ar
    18    21    22    1
    19    21    23   ar
    20    23    24    1
    21    10     2   ar
    22    23    17   ar
    23     9     4   ar
    24     1    11    1
    25     1    12    1
    26    15    16    1
@<TRIPOS>MOLECULE
*****
 24 26 0 0 0
SMALL
GASTEIGER

@<TRIPOS>ATOM
      1 N         141.8713  145.8782  163.4469 N.pl3   1  UNL1       -0.3287
      2 C         142.5276  144.5362  163.5823 C.ar    1  UNL1        0.1959
      3 N         144.0001  144.2845  163.7180 N.ar    1  UNL1       -0.2123
      4 C         144.2092  142.8030  163.8254 C.ar    1  UNL1        0.1182
      5 C         145.4492  141.9728  163.9773 C.ar    1  UNL1        0.0239
      6 C         145.3460  140.4787  164.0599 C.ar    1  UNL1        0.0223
      7 C         144.0027  139.8148  163.9906 C.ar    1  UNL1        0.1006
      8 N         142.7627  140.6450  163.8386 N.ar    1  UNL1       -0.2251
      9 C         142.8659  142.1391  163.7560 C.ar    1  UNL1        0.1637
     10 N         141.8267  143.2103  163.6058 N.ar    1  UNL1       -0.2825
     11 H         142.4194  146.6960  163.4419 H       1  UNL1        0.1451
     12 H         140.8924  145.9412  163.3631 H       1  UNL1        0.1451
     13 C         140.3463  142.9935  163.4981 C.3     1  UNL1        0.1438
     14 C         139.4938  143.0121  164.7320 C.3     1  UNL1        0.1562
     15 O         138.8837  144.2991  165.2028 O.3     1  UNL1       -0.3780
     16 H         138.3667  144.1366  166.0073 H       1  UNL1        0.2109
     17 C         139.2512  141.7438  165.4953 C.ar    1  UNL1        0.0176
     18 C         138.3003  140.7155  164.9582 C.ar    1  UNL1       -0.0010
     19 C         138.0577  139.4472  165.7215 C.ar    1  UNL1        0.0007
     20 C         138.7659  139.2072  167.0218 C.ar    1  UNL1        0.0122
     21 C         139.7168  140.2355  167.5588 C.ar    1  UNL1        0.0680
     22 CL        140.4250  139.9957  168.8591 Cl      1  UNL1       -0.0814
     23 C         139.9594  141.5038  166.7956 C.ar    1  UNL1        0.0665
     24 CL        140.9102  142.5322  167.3326 Cl      1  UNL1       -0.0816
@<TRIPOS>BOND
     1     1     2    1
     2     2     3   ar
     3     3     4   ar
     4     4     5   ar
     5     5     6   ar
     6     6     7   ar
     7     7     8   ar
     8     8     9   ar
     9     9    10   ar
    10    10    13    1
    11    13    14    1
    12    14    15    1
    13    14    17    1
    14    17    18   ar
    15    18    19   ar
    16    19    20   ar
    17    20    21   ar
    18    21    22    1
    19    21    23   ar
    20    23    24    1
    21    10     2   ar
    22    23    17   ar
    23     9     4   ar
    24     1    11    1
    25     1    12    1
    26    15    16    1
@<TRIPOS>MOLECULE
*****
 24 26 0 0 0
SMALL
GASTEIGER

@<TRIPOS>ATOM
      1 N         138.1329  143.2701  161.2469 N.pl3   1  UNL1       -0.3287
      2 C         138.2653  142.1109  162.1897 C.ar    1  UNL1        0.1959
      3 N         138.6427  140.7084  161.8150 N.ar    1  UNL1       -0.2123
      4 C         138.6541  139.8814  163.0664 C.ar    1  UNL1        0.1182
      5 C         138.9539  138.4318  163.3087 C.ar    1  UNL1        0.0239
      6 C         138.8834  137.8737  164.6992 C.ar    1  UNL1        0.0223
      7 C         138.5131  138.7651  165.8473 C.ar    1  UNL1        0.1006
      8 N         138.2133  140.2147  165.6050 N.ar    1  UNL1       -0.2251
      9 C         138.2838  140.7728  164.2145 C.ar    1  UNL1        0.1637
     10 N         138.0435  142.1507  163.6727 N.ar    1  UNL1       -0.2825
     11 H         138.3000  143.1438  160.2850 H       1  UNL1        0.1451
     12 H         137.8790  144.1572  161.5901 H       1  UNL1        0.1451
     13 C         137.6504  143.3568  164.4733 C.3     1  UNL1        0.1438
     14 C         138.7027  144.1803  165.1546 C.3     1  UNL1        0.1562
     15 O         138.3108  145.3948  165.9431 O.3     1  UNL1       -0.3780
     16 H         139.1052  145.8088  166.3152 H       1  UNL1        0.2109
     17 C         140.1470  143.7895  165.0477 C.ar    1  UNL1        0.0176
     18 C         140.7374  142.8233  166.0315 C.ar    1  UNL1       -0.0010
     19 C         142.1816  142.4326  165.9246 C.ar    1  UNL1        0.0007
     20 C         143.0355  143.0079  164.8337 C.ar    1  UNL1        0.0122
     21 C         142.4451  143.9740  163.8499 C.ar    1  UNL1        0.0680
     22 CL        143.2988  144.5494  162.7591 Cl      1  UNL1       -0.0814
     23 C         141.0008  144.3648  163.9569 C.ar    1  UNL1        0.0665
     24 CL        140.4104  145.3310  162.9730 Cl      1  UNL1       -0.0816
@<TRIPOS>BOND
     1     1     2    1
     2     2     3   ar
     3     3     4   ar
     4     4     5   ar
     5     5     6   ar
     6     6     7   ar
     7     7     8   ar
     8     8     9   ar
     9     9    10   ar
    10    10    13    1
    11    13    14    1
    12    14    15    1
    13    14    17    1
    14    17    18   ar
    15    18    19   ar
    16    19    20   ar
    17    20    21   ar
    18    21    22    1
    19    21    23   ar
    20    23    24    1
    21    10     2   ar
    22    23    17   ar
    23     9     4   ar
    24     1    11    1
    25     1    12    1
    26    15    16    1
@<TRIPOS>MOLECULE
*****
 24 26 0 0 0
SMALL
GASTEIGER

@<TRIPOS>ATOM
      1 N         145.0622  143.1502  162.0318 N.pl3   1  UNL1       -0.3287
      2 C         144.6183  142.1892  163.0945 C.ar    1  UNL1        0.1959
      3 N         145.0317  140.7521  163.2121 N.ar    1  UNL1       -0.2123
      4 C         144.3520  140.1712  164.4165 C.ar    1  UNL1        0.1182
      5 C         144.3844  138.7999  165.0234 C.ar    1  UNL1        0.0239
      6 C         143.5832  138.5067  166.2572 C.ar    1  UNL1        0.0223
      7 C         142.7497  139.5848  166.8840 C.ar    1  UNL1        0.1006
      8 N         142.7174  140.9561  166.2771 N.ar    1  UNL1       -0.2251
      9 C         143.5185  141.2493  165.0434 C.ar    1  UNL1        0.1637
     10 N         143.6831  142.4965  164.2263 N.ar    1  UNL1       -0.2825
     11 H         145.6816  142.8528  161.3268 H       1  UNL1        0.1451
     12 H         144.7341  144.0784  162.0394 H       1  UNL1        0.1451
     13 C         143.0276  143.8188  164.4941 C.3     1  UNL1        0.1438
     14 C         142.1740  144.4599  163.4404 C.3     1  UNL1        0.1562
     15 O         142.7980  145.3580  162.4137 O.3     1  UNL1       -0.3780
     16 H         142.1119  145.6868  161.8120 H       1  UNL1        0.2109
     17 C         140.6964  144.2030  163.4133 C.ar    1  UNL1        0.0176
     18 C         139.8197  144.7515  164.4998 C.ar    1  UNL1       -0.0010
     19 C         138.3421  144.4946  164.4727 C.ar    1  UNL1        0.0007
     20 C         137.7413  143.6891  163.3591 C.ar    1  UNL1        0.0122
     21 C         138.6180  143.1406  162.2726 C.ar    1  UNL1        0.0680
     22 CL        138.0172  142.3351  161.1590 Cl      1  UNL1       -0.0814
     23 C         140.0955  143.3975  162.2997 C.ar    1  UNL1        0.0665
     24 CL        140.9722  142.8489  161.2133 Cl      1  UNL1       -0.0816
@<TRIPOS>BOND
     1     1     2    1
     2     2     3   ar
     3     3     4   ar
     4     4     5   ar
     5     5     6   ar
     6     6     7   ar
     7     7     8   ar
     8     8     9   ar
     9     9    10   ar
    10    10    13    1
    11    13    14    1
    12    14    15    1
    13    14    17    1
    14    17    18   ar
    15    18    19   ar
    16    19    20   ar
    17    20    21   ar
    18    21    22    1
    19    21    23   ar
    20    23    24    1
    21    10     2   ar
    22    23    17   ar
    23     9     4   ar
    24     1    11    1
    25     1    12    1
    26    15    16    1
