@<TRIPOS>MOLECULE
*****
 36 40 0 0 0
SMALL
GASTEIGER

@<TRIPOS>ATOM
      1 N         138.6754  139.2779  164.7871 N.3     1  UNL1       -0.2704
      2 C         138.0601  140.4236  164.0396 C.3     1  UNL1        0.0722
      3 C         138.1173  140.4585  162.5411 C.3     1  UNL1        0.0195
      4 C         138.7897  139.3477  161.7902 C.3     1  UNL1        0.0300
      5 C         139.4050  138.2020  162.5377 C.3     1  UNL1        0.0195
      6 C         139.3478  138.1671  164.0361 C.3     1  UNL1        0.0722
      7 C         139.4248  138.3142  160.9077 C.3     1  UNL1        0.0874
      8 C         139.2494  138.7500  159.4831 C.2     1  UNL1        0.2305
      9 O         139.7327  138.0125  158.2696 O.2     1  UNL1       -0.2745
     10 N         138.5059  140.0528  159.4851 N.am    1  UNL1       -0.2426
     11 C         138.2218  140.4222  160.9109 C.3     1  UNL1        0.1001
     12 C         138.1152  140.8468  158.2740 C.ar    1  UNL1        0.1569
     13 C         138.6745  142.2231  158.0670 C.ar    1  UNL1        0.1349
     14 N         138.2837  143.0171  156.8558 N.ar    1  UNL1       -0.2215
     15 C         137.3336  142.4348  155.8517 C.ar    1  UNL1        0.2057
     16 C         136.7742  141.0584  156.0588 C.ar    1  UNL1        0.1381
     17 N         137.1651  140.2645  157.2700 N.ar    1  UNL1       -0.2242
     18 S         136.9428  143.2288  154.6406 S.O2    1  UNL1        0.0283
     19 C         136.5520  144.0228  153.4294 C.3     1  UNL1        0.1835
     20 O         136.9252  144.4806  155.4669 O.2     1  UNL1       -0.1671
     21 O         136.9604  141.9771  153.8143 O.2     1  UNL1       -0.1671
     22 C         138.6182  139.2430  166.2857 C.3     1  UNL1        0.1063
     23 C         139.6998  139.8976  167.0929 C.3     1  UNL1        0.1483
     24 O         139.5086  140.1175  168.5643 O.3     1  UNL1       -0.3786
     25 H         140.2962  140.5483  168.9319 H       1  UNL1        0.2108
     26 C         140.0226  142.7378  166.1824 C.3     1  UNL1        0.0306
     27 C         141.1340  141.7523  165.9735 C.ar    1  UNL1       -0.0238
     28 C         140.9726  140.3323  166.4287 C.ar    1  UNL1        0.0015
     29 C         142.0840  139.3468  166.2198 C.ar    1  UNL1       -0.0020
     30 C         143.3568  139.7814  165.5557 C.ar    1  UNL1        0.0060
     31 C         143.5182  141.2015  165.1005 C.ar    1  UNL1        0.0748
     32 C         142.4068  142.1870  165.3094 C.ar    1  UNL1        0.0233
     33 C         142.8508  143.5099  164.7593 C.3     1  UNL1        0.2352
     34 O         144.2367  143.3421  164.2104 O.3     1  UNL1       -0.4404
     35 C         144.6491  141.9154  164.4213 C.2     1  UNL1        0.3413
     36 O         145.9620  141.3091  164.0229 O.2     1  UNL1       -0.2449
@<TRIPOS>BOND
     1    26    27    1
     2    27    28   ar
     3    28    23    1
     4    23    24    1
     5    23    22    1
     6    22     1    1
     7     1     2    1
     8     2     3    1
     9     3     4    1
    10     4     5    1
    11     5     6    1
    12     4     7    1
    13     7     8    1
    14     8     9    2
    15     8    10   am
    16    10    12    1
    17    12    13   ar
    18    13    14   ar
    19    14    15   ar
    20    15    18    1
    21    18    19    1
    22    18    20    2
    23    18    21    2
    24    15    16   ar
    25    16    17   ar
    26    10    11    1
    27    28    29   ar
    28    29    30   ar
    29    30    31   ar
    30    31    32   ar
    31    32    33    1
    32    33    34    1
    33    34    35    1
    34    35    36    2
    35    32    27   ar
    36     6     1    1
    37    17    12   ar
    38    35    31    1
    39    11     4    1
    40    24    25    1
@<TRIPOS>MOLECULE
*****
 36 40 0 0 0
SMALL
GASTEIGER

@<TRIPOS>ATOM
      1 N         143.2871  138.6089  164.7345 N.3     1  UNL1       -0.2704
      2 C         142.1424  137.9990  163.9813 C.3     1  UNL1        0.0722
      3 C         142.0681  138.1365  162.4894 C.3     1  UNL1        0.0195
      4 C         143.1386  138.8839  161.7509 C.3     1  UNL1        0.0300
      5 C         144.2834  139.4938  162.5042 C.3     1  UNL1        0.0195
      6 C         144.3577  139.3563  163.9960 C.3     1  UNL1        0.0722
      7 C         144.1297  139.5987  160.8809 C.3     1  UNL1        0.0874
      8 C         143.6639  139.4873  159.4594 C.2     1  UNL1        0.2305
      9 O         144.3555  140.0591  158.2575 O.2     1  UNL1       -0.2745
     10 N         142.3848  138.7036  159.4509 N.am    1  UNL1       -0.2426
     11 C         142.0602  138.3307  160.8671 C.3     1  UNL1        0.1001
     12 C         141.5730  138.3542  158.2390 C.ar    1  UNL1        0.1569
     13 C         140.0899  138.5787  158.2395 C.ar    1  UNL1        0.1349
     14 N         139.2780  138.2293  157.0276 N.ar    1  UNL1       -0.2215
     15 C         139.9493  137.6554  155.8151 C.ar    1  UNL1        0.2057
     16 C         141.4324  137.4309  155.8145 C.ar    1  UNL1        0.1381
     17 N         142.2442  137.7803  157.0265 N.ar    1  UNL1       -0.2242
     18 S         139.1374  137.3060  154.6031 S.O2    1  UNL1        0.0283
     19 C         138.3255  136.9566  153.3912 C.3     1  UNL1        0.1835
     20 O         137.8935  137.2886  155.4414 O.2     1  UNL1       -0.1671
     21 O         140.3811  137.3233  153.7650 O.2     1  UNL1       -0.1671
     22 C         143.3614  138.4715  166.2264 C.3     1  UNL1        0.1063
     23 C         142.6664  139.4673  167.1069 C.3     1  UNL1        0.1483
     24 O         143.0044  139.5425  168.5664 O.3     1  UNL1       -0.3786
     25 H         142.4689  140.2333  168.9871 H       1  UNL1        0.2108
     26 C         143.4845  142.1324  165.9987 C.3     1  UNL1        0.0306
     27 C         142.0424  141.7204  165.9738 C.ar    1  UNL1       -0.0238
     28 C         141.6333  140.3879  166.5279 C.ar    1  UNL1        0.0015
     29 C         140.1912  139.9760  166.5030 C.ar    1  UNL1       -0.0020
     30 C         139.1581  140.8966  165.9240 C.ar    1  UNL1        0.0060
     31 C         139.5672  142.2291  165.3699 C.ar    1  UNL1        0.0748
     32 C         141.0093  142.6410  165.3948 C.ar    1  UNL1        0.0233
     33 C         141.1123  144.0055  164.7803 C.3     1  UNL1        0.2352
     34 O         139.7338  144.4369  164.3756 O.3     1  UNL1       -0.4404
     35 C         138.7789  143.3390  164.7400 C.2     1  UNL1        0.3413
     36 O         137.2961  143.3492  164.5142 O.2     1  UNL1       -0.2449
@<TRIPOS>BOND
     1    26    27    1
     2    27    28   ar
     3    28    23    1
     4    23    24    1
     5    23    22    1
     6    22     1    1
     7     1     2    1
     8     2     3    1
     9     3     4    1
    10     4     5    1
    11     5     6    1
    12     4     7    1
    13     7     8    1
    14     8     9    2
    15     8    10   am
    16    10    12    1
    17    12    13   ar
    18    13    14   ar
    19    14    15   ar
    20    15    18    1
    21    18    19    1
    22    18    20    2
    23    18    21    2
    24    15    16   ar
    25    16    17   ar
    26    10    11    1
    27    28    29   ar
    28    29    30   ar
    29    30    31   ar
    30    31    32   ar
    31    32    33    1
    32    33    34    1
    33    34    35    1
    34    35    36    2
    35    32    27   ar
    36     6     1    1
    37    17    12   ar
    38    35    31    1
    39    11     4    1
    40    24    25    1
@<TRIPOS>MOLECULE
*****
 36 40 0 0 0
SMALL
GASTEIGER

@<TRIPOS>ATOM
      1 N         138.4863  140.9888  164.2953 N.3     1  UNL1       -0.2704
      2 C         138.9287  140.6520  162.9022 C.3     1  UNL1        0.0722
      3 C         139.2867  141.7485  161.9434 C.3     1  UNL1        0.0195
      4 C         139.2024  143.1818  162.3776 C.3     1  UNL1        0.0300
      5 C         138.7600  143.5186  163.7708 C.3     1  UNL1        0.0195
      6 C         138.4020  142.4221  164.7296 C.3     1  UNL1        0.0722
      7 C         139.1668  144.6531  162.6676 C.3     1  UNL1        0.0874
      8 C         139.6013  145.3802  161.4295 C.2     1  UNL1        0.2305
      9 O         139.7122  146.8680  161.2739 O.2     1  UNL1       -0.2745
     10 N         139.9054  144.3582  160.3744 N.am    1  UNL1       -0.2426
     11 C         139.6589  142.9996  160.9604 C.3     1  UNL1        0.1001
     12 C         140.3738  144.6446  158.9786 C.ar    1  UNL1        0.1569
     13 C         139.5847  144.1441  157.8052 C.ar    1  UNL1        0.1349
     14 N         140.0532  144.4305  156.4093 N.ar    1  UNL1       -0.2215
     15 C         141.3106  145.2174  156.1868 C.ar    1  UNL1        0.2057
     16 C         142.0997  145.7180  157.3602 C.ar    1  UNL1        0.1381
     17 N         141.6312  145.4315  158.7561 N.ar    1  UNL1       -0.2242
     18 S         141.7790  145.5039  154.7908 S.O2    1  UNL1        0.0283
     19 C         142.2474  145.7903  153.3949 C.3     1  UNL1        0.1835
     20 O         143.0769  144.8114  155.0843 O.2     1  UNL1       -0.1671
     21 O         140.4813  146.1963  154.4974 O.2     1  UNL1       -0.1671
     22 C         138.1283  139.8923  165.2543 C.3     1  UNL1        0.1063
     23 C         139.2009  139.2188  166.0579 C.3     1  UNL1        0.1483
     24 O         139.6231  137.8193  165.7214 O.3     1  UNL1       -0.3786
     25 H         140.3207  137.5361  166.3331 H       1  UNL1        0.2108
     26 C         141.7789  140.6903  165.6237 C.3     1  UNL1        0.0306
     27 C         141.1403  140.6805  166.9809 C.ar    1  UNL1       -0.0238
     28 C         139.8514  139.9448  167.1980 C.ar    1  UNL1        0.0015
     29 C         139.2128  139.9350  168.5553 C.ar    1  UNL1       -0.0020
     30 C         139.8632  140.6609  169.6954 C.ar    1  UNL1        0.0060
     31 C         141.1522  141.3966  169.4783 C.ar    1  UNL1        0.0748
     32 C         141.7907  141.4065  168.1210 C.ar    1  UNL1        0.0233
     33 C         143.0530  142.2121  168.2085 C.3     1  UNL1        0.2352
     34 O         143.1946  142.7002  169.6198 O.3     1  UNL1       -0.4404
     35 C         142.0198  142.1962  170.4045 C.2     1  UNL1        0.3413
     36 O         141.7585  142.4477  171.8600 O.2     1  UNL1       -0.2449
@<TRIPOS>BOND
     1    26    27    1
     2    27    28   ar
     3    28    23    1
     4    23    24    1
     5    23    22    1
     6    22     1    1
     7     1     2    1
     8     2     3    1
     9     3     4    1
    10     4     5    1
    11     5     6    1
    12     4     7    1
    13     7     8    1
    14     8     9    2
    15     8    10   am
    16    10    12    1
    17    12    13   ar
    18    13    14   ar
    19    14    15   ar
    20    15    18    1
    21    18    19    1
    22    18    20    2
    23    18    21    2
    24    15    16   ar
    25    16    17   ar
    26    10    11    1
    27    28    29   ar
    28    29    30   ar
    29    30    31   ar
    30    31    32   ar
    31    32    33    1
    32    33    34    1
    33    34    35    1
    34    35    36    2
    35    32    27   ar
    36     6     1    1
    37    17    12   ar
    38    35    31    1
    39    11     4    1
    40    24    25    1
@<TRIPOS>MOLECULE
*****
 36 40 0 0 0
SMALL
GASTEIGER

@<TRIPOS>ATOM
      1 N         142.7506  139.2531  164.6834 N.3     1  UNL1       -0.2704
      2 C         142.1205  138.1037  163.9543 C.3     1  UNL1        0.0722
      3 C         142.2895  137.9742  162.4695 C.3     1  UNL1        0.0195
      4 C         143.0887  138.9942  161.7138 C.3     1  UNL1        0.0300
      5 C         143.7188  140.1436  162.4430 C.3     1  UNL1        0.0195
      6 C         143.5498  140.2731  163.9278 C.3     1  UNL1        0.0722
      7 C         143.8556  139.9314  160.8287 C.3     1  UNL1        0.0874
      8 C         143.7614  139.4212  159.4212 C.2     1  UNL1        0.2305
      9 O         144.3832  140.0526  158.2110 O.2     1  UNL1       -0.2745
     10 N         142.9362  138.1686  159.4365 N.am    1  UNL1       -0.2426
     11 C         142.5204  137.9047  160.8534 C.3     1  UNL1        0.1001
     12 C         142.5879  137.3277  158.2443 C.ar    1  UNL1        0.1569
     13 C         141.4814  137.7519  157.3248 C.ar    1  UNL1        0.1349
     14 N         141.1331  136.9109  156.1325 N.ar    1  UNL1       -0.2215
     15 C         141.8913  135.6457  155.8598 C.ar    1  UNL1        0.2057
     16 C         142.9979  135.2215  156.7794 C.ar    1  UNL1        0.1381
     17 N         143.3461  136.0625  157.9716 N.ar    1  UNL1       -0.2242
     18 S         141.5430  134.8047  154.6676 S.O2    1  UNL1        0.0283
     19 C         141.1947  133.9637  153.4753 C.3     1  UNL1        0.1835
     20 O         141.2721  136.0464  153.8708 O.2     1  UNL1       -0.1671
     21 O         141.8139  133.5631  155.4643 O.2     1  UNL1       -0.1671
     22 C         142.5816  139.3826  166.1683 C.3     1  UNL1        0.1063
     23 C         141.4108  140.1356  166.7270 C.3     1  UNL1        0.1483
     24 O         141.0574  140.0030  168.1787 O.3     1  UNL1       -0.3786
     25 H         140.2813  140.5512  168.3739 H       1  UNL1        0.2108
     26 C         139.0453  139.0151  165.2610 C.3     1  UNL1        0.0306
     27 C         139.4107  140.4611  165.1010 C.ar    1  UNL1       -0.0238
     28 C         140.5934  141.0214  165.8340 C.ar    1  UNL1        0.0015
     29 C         140.9588  142.4674  165.6740 C.ar    1  UNL1       -0.0020
     30 C         140.1415  143.3531  164.7810 C.ar    1  UNL1        0.0060
     31 C         138.9588  142.7929  164.0481 C.ar    1  UNL1        0.0748
     32 C         138.5934  141.3469  164.2081 C.ar    1  UNL1        0.0233
     33 C         137.3822  141.0788  163.3647 C.3     1  UNL1        0.2352
     34 O         136.9991  142.3591  162.6835 O.3     1  UNL1       -0.4404
     35 C         137.9734  143.4184  163.1058 C.2     1  UNL1        0.3413
     36 O         137.9641  144.8517  162.6636 O.2     1  UNL1       -0.2449
@<TRIPOS>BOND
     1    26    27    1
     2    27    28   ar
     3    28    23    1
     4    23    24    1
     5    23    22    1
     6    22     1    1
     7     1     2    1
     8     2     3    1
     9     3     4    1
    10     4     5    1
    11     5     6    1
    12     4     7    1
    13     7     8    1
    14     8     9    2
    15     8    10   am
    16    10    12    1
    17    12    13   ar
    18    13    14   ar
    19    14    15   ar
    20    15    18    1
    21    18    19    1
    22    18    20    2
    23    18    21    2
    24    15    16   ar
    25    16    17   ar
    26    10    11    1
    27    28    29   ar
    28    29    30   ar
    29    30    31   ar
    30    31    32   ar
    31    32    33    1
    32    33    34    1
    33    34    35    1
    34    35    36    2
    35    32    27   ar
    36     6     1    1
    37    17    12   ar
    38    35    31    1
    39    11     4    1
    40    24    25    1
@<TRIPOS>MOLECULE
*****
 36 40 0 0 0
SMALL
GASTEIGER

@<TRIPOS>ATOM
      1 N         143.3201  140.0646  163.3876 N.3     1  UNL1       -0.2704
      2 C         142.8312  138.6998  163.0024 C.3     1  UNL1        0.0722
      3 C         142.7817  138.3012  161.5573 C.3     1  UNL1        0.0195
      4 C         143.2211  139.2673  160.4973 C.3     1  UNL1        0.0300
      5 C         143.7100  140.6320  160.8824 C.3     1  UNL1        0.0195
      6 C         143.7595  141.0307  162.3276 C.3     1  UNL1        0.0722
      7 C         143.6256  140.1217  159.3326 C.3     1  UNL1        0.0874
      8 C         143.4128  139.3266  158.0784 C.2     1  UNL1        0.2305
      9 O         143.6878  139.7951  156.6802 O.2     1  UNL1       -0.2745
     10 N         142.8769  137.9808  158.4681 N.am    1  UNL1       -0.2426
     11 C         142.7584  137.9442  159.9629 C.3     1  UNL1        0.1001
     12 C         142.5219  136.8674  157.5279 C.ar    1  UNL1        0.1569
     13 C         141.3979  137.0412  156.5500 C.ar    1  UNL1        0.1349
     14 N         141.0428  135.9276  155.6098 N.ar    1  UNL1       -0.2215
     15 C         141.8117  134.6402  155.6476 C.ar    1  UNL1        0.2057
     16 C         142.9358  134.4664  156.6256 C.ar    1  UNL1        0.1381
     17 N         143.2908  135.5800  157.5657 N.ar    1  UNL1       -0.2242
     18 S         141.4566  133.5267  154.7074 S.O2    1  UNL1        0.0283
     19 C         141.1016  132.4131  153.7672 C.3     1  UNL1        0.1835
     20 O         141.1052  134.5312  153.6503 O.2     1  UNL1       -0.1671
     21 O         141.8081  132.5222  155.7644 O.2     1  UNL1       -0.1671
     22 C         143.3697  140.4633  164.8328 C.3     1  UNL1        0.1063
     23 C         142.4004  141.4769  165.3649 C.3     1  UNL1        0.1483
     24 O         142.2972  142.8269  164.7194 O.3     1  UNL1       -0.3786
     25 H         141.6289  143.3563  165.1820 H       1  UNL1        0.2108
     26 C         143.1953  142.3711  168.1160 C.3     1  UNL1        0.0306
     27 C         141.9317  141.5875  167.9180 C.ar    1  UNL1       -0.0238
     28 C         141.5342  141.1404  166.5425 C.ar    1  UNL1        0.0015
     29 C         140.2706  140.3568  166.3445 C.ar    1  UNL1       -0.0020
     30 C         139.4044  140.0204  167.5219 C.ar    1  UNL1        0.0060
     31 C         139.8019  140.4675  168.8974 C.ar    1  UNL1        0.0748
     32 C         141.0656  141.2511  169.0954 C.ar    1  UNL1        0.0233
     33 C         141.1987  141.5539  170.5585 C.3     1  UNL1        0.2352
     34 O         140.0173  140.9576  171.2647 O.3     1  UNL1       -0.4404
     35 C         139.1541  140.2861  170.2381 C.2     1  UNL1        0.3413
     36 O         137.8687  139.5606  170.5053 O.2     1  UNL1       -0.2449
@<TRIPOS>BOND
     1    26    27    1
     2    27    28   ar
     3    28    23    1
     4    23    24    1
     5    23    22    1
     6    22     1    1
     7     1     2    1
     8     2     3    1
     9     3     4    1
    10     4     5    1
    11     5     6    1
    12     4     7    1
    13     7     8    1
    14     8     9    2
    15     8    10   am
    16    10    12    1
    17    12    13   ar
    18    13    14   ar
    19    14    15   ar
    20    15    18    1
    21    18    19    1
    22    18    20    2
    23    18    21    2
    24    15    16   ar
    25    16    17   ar
    26    10    11    1
    27    28    29   ar
    28    29    30   ar
    29    30    31   ar
    30    31    32   ar
    31    32    33    1
    32    33    34    1
    33    34    35    1
    34    35    36    2
    35    32    27   ar
    36     6     1    1
    37    17    12   ar
    38    35    31    1
    39    11     4    1
    40    24    25    1
@<TRIPOS>MOLECULE
*****
 36 40 0 0 0
SMALL
GASTEIGER

@<TRIPOS>ATOM
      1 N         144.4302  141.9702  162.4497 N.3     1  UNL1       -0.2704
      2 C         144.2820  140.4960  162.2156 C.3     1  UNL1        0.0722
      3 C         143.9375  139.9847  160.8482 C.3     1  UNL1        0.0195
      4 C         143.7413  140.9476  159.7149 C.3     1  UNL1        0.0300
      5 C         143.8895  142.4218  159.9490 C.3     1  UNL1        0.0195
      6 C         144.2339  142.9330  161.3164 C.3     1  UNL1        0.0722
      7 C         143.5164  141.7854  158.4911 C.3     1  UNL1        0.0874
      8 C         143.1974  140.8643  157.3509 C.2     1  UNL1        0.2305
      9 O         142.9024  141.2777  155.9395 O.2     1  UNL1       -0.2745
     10 N         143.2251  139.4572  157.8701 N.am    1  UNL1       -0.2426
     11 C         143.5613  139.5087  159.3310 C.3     1  UNL1        0.1001
     12 C         142.9628  138.2166  157.0690 C.ar    1  UNL1        0.1569
     13 C         141.6150  137.5603  157.1224 C.ar    1  UNL1        0.1349
     14 N         141.3527  136.3196  156.3212 N.ar    1  UNL1       -0.2215
     15 C         142.4381  135.7352  155.4666 C.ar    1  UNL1        0.2057
     16 C         143.7859  136.3914  155.4132 C.ar    1  UNL1        0.1381
     17 N         144.0482  137.6321  156.2144 N.ar    1  UNL1       -0.2242
     18 S         142.1757  134.4945  154.6655 S.O2    1  UNL1        0.0283
     19 C         141.9134  133.2538  153.8643 C.3     1  UNL1        0.1835
     20 O         142.0417  133.7041  155.9333 O.2     1  UNL1       -0.1671
     21 O         142.3097  135.2848  153.3977 O.2     1  UNL1       -0.1671
     22 C         144.7746  142.4815  163.8172 C.3     1  UNL1        0.1063
     23 C         143.6839  142.7841  164.8015 C.3     1  UNL1        0.1483
     24 O         144.0287  143.1372  166.2180 O.3     1  UNL1       -0.3786
     25 H         143.2138  143.3021  166.7176 H       1  UNL1        0.2108
     26 C         142.3380  145.2614  163.7762 C.3     1  UNL1        0.0306
     27 C         141.5754  143.9722  163.8567 C.ar    1  UNL1       -0.0238
     28 C         142.2484  142.7336  164.3693 C.ar    1  UNL1        0.0015
     29 C         141.4859  141.4444  164.4498 C.ar    1  UNL1       -0.0020
     30 C         140.0504  141.3938  164.0176 C.ar    1  UNL1        0.0060
     31 C         139.3774  142.6325  163.5050 C.ar    1  UNL1        0.0748
     32 C         140.1400  143.9217  163.4245 C.ar    1  UNL1        0.0233
     33 C         139.2178  144.9724  162.8808 C.3     1  UNL1        0.2352
     34 O         137.8854  144.3327  162.6253 O.3     1  UNL1       -0.4404
     35 C         137.9841  142.8865  163.0111 C.2     1  UNL1        0.3413
     36 O         136.8827  141.8723  162.9190 O.2     1  UNL1       -0.2449
@<TRIPOS>BOND
     1    26    27    1
     2    27    28   ar
     3    28    23    1
     4    23    24    1
     5    23    22    1
     6    22     1    1
     7     1     2    1
     8     2     3    1
     9     3     4    1
    10     4     5    1
    11     5     6    1
    12     4     7    1
    13     7     8    1
    14     8     9    2
    15     8    10   am
    16    10    12    1
    17    12    13   ar
    18    13    14   ar
    19    14    15   ar
    20    15    18    1
    21    18    19    1
    22    18    20    2
    23    18    21    2
    24    15    16   ar
    25    16    17   ar
    26    10    11    1
    27    28    29   ar
    28    29    30   ar
    29    30    31   ar
    30    31    32   ar
    31    32    33    1
    32    33    34    1
    33    34    35    1
    34    35    36    2
    35    32    27   ar
    36     6     1    1
    37    17    12   ar
    38    35    31    1
    39    11     4    1
    40    24    25    1
@<TRIPOS>MOLECULE
*****
 36 40 0 0 0
SMALL
GASTEIGER

@<TRIPOS>ATOM
      1 N         138.5200  139.2958  164.3807 N.3     1  UNL1       -0.2704
      2 C         139.2048  138.1803  163.6482 C.3     1  UNL1        0.0722
      3 C         139.3527  138.2420  162.1568 C.3     1  UNL1        0.0195
      4 C         138.8157  139.4192  161.3979 C.3     1  UNL1        0.0300
      5 C         138.1309  140.5347  162.1304 C.3     1  UNL1        0.0195
      6 C         137.9830  140.4730  163.6218 C.3     1  UNL1        0.0722
      7 C         138.3319  140.5263  160.5089 C.3     1  UNL1        0.0874
      8 C         138.6905  140.1759  159.0951 C.2     1  UNL1        0.2305
      9 O         138.3956  141.0038  157.8796 O.2     1  UNL1       -0.2745
     10 N         139.3960  138.8521  159.1104 N.am    1  UNL1       -0.2426
     11 C         139.4733  138.3845  160.5335 C.3     1  UNL1        0.1001
     12 C         139.9302  138.1240  157.9128 C.ar    1  UNL1        0.1569
     13 C         141.3960  137.8225  157.8107 C.ar    1  UNL1        0.1349
     14 N         141.9303  137.0943  156.6130 N.ar    1  UNL1       -0.2215
     15 C         140.9987  136.6676  155.5175 C.ar    1  UNL1        0.2057
     16 C         139.5328  136.9691  155.6197 C.ar    1  UNL1        0.1381
     17 N         138.9987  137.6973  156.8173 N.ar    1  UNL1       -0.2242
     18 S         141.5330  135.9394  154.3199 S.O2    1  UNL1        0.0283
     19 C         142.0673  135.2112  153.1222 C.3     1  UNL1        0.1835
     20 O         141.0821  134.6366  154.9109 O.2     1  UNL1       -0.1671
     21 O         141.9839  137.2422  153.7289 O.2     1  UNL1       -0.1671
     22 C         138.3721  139.2342  165.8722 C.3     1  UNL1        0.1063
     23 C         139.4461  139.7955  166.7561 C.3     1  UNL1        0.1483
     24 O         139.2104  139.9270  168.2317 O.3     1  UNL1       -0.3786
     25 H         139.9986  140.3042  168.6527 H       1  UNL1        0.2108
     26 C         139.8685  142.6591  165.9678 C.3     1  UNL1        0.0306
     27 C         140.9671  141.6570  165.7705 C.ar    1  UNL1       -0.0238
     28 C         140.7559  140.2252  166.1646 C.ar    1  UNL1        0.0015
     29 C         141.8545  139.2231  165.9673 C.ar    1  UNL1       -0.0020
     30 C         143.1642  139.6528  165.3759 C.ar    1  UNL1        0.0060
     31 C         143.3754  141.0846  164.9817 C.ar    1  UNL1        0.0748
     32 C         142.2768  142.0867  165.1790 C.ar    1  UNL1        0.0233
     33 C         142.7725  143.4185  164.6988 C.3     1  UNL1        0.2352
     34 O         144.1774  143.2395  164.2046 O.3     1  UNL1       -0.4404
     35 C         144.5500  141.7971  164.3795 C.2     1  UNL1        0.3413
     36 O         145.8662  141.1761  164.0160 O.2     1  UNL1       -0.2449
@<TRIPOS>BOND
     1    26    27    1
     2    27    28   ar
     3    28    23    1
     4    23    24    1
     5    23    22    1
     6    22     1    1
     7     1     2    1
     8     2     3    1
     9     3     4    1
    10     4     5    1
    11     5     6    1
    12     4     7    1
    13     7     8    1
    14     8     9    2
    15     8    10   am
    16    10    12    1
    17    12    13   ar
    18    13    14   ar
    19    14    15   ar
    20    15    18    1
    21    18    19    1
    22    18    20    2
    23    18    21    2
    24    15    16   ar
    25    16    17   ar
    26    10    11    1
    27    28    29   ar
    28    29    30   ar
    29    30    31   ar
    30    31    32   ar
    31    32    33    1
    32    33    34    1
    33    34    35    1
    34    35    36    2
    35    32    27   ar
    36     6     1    1
    37    17    12   ar
    38    35    31    1
    39    11     4    1
    40    24    25    1
@<TRIPOS>MOLECULE
*****
 36 40 0 0 0
SMALL
GASTEIGER

@<TRIPOS>ATOM
      1 N         140.0875  138.0555  162.7635 N.3     1  UNL1       -0.2704
      2 C         141.4891  138.5704  162.6214 C.3     1  UNL1        0.0722
      3 C         142.0007  138.9913  161.2756 C.3     1  UNL1        0.0195
      4 C         141.1106  138.8972  160.0719 C.3     1  UNL1        0.0300
      5 C         139.7090  138.3822  160.2140 C.3     1  UNL1        0.0195
      6 C         139.1974  137.9613  161.5598 C.3     1  UNL1        0.0722
      7 C         140.3408  138.8600  158.7850 C.3     1  UNL1        0.0874
      8 C         141.2362  139.3690  157.6944 C.2     1  UNL1        0.2305
      9 O         140.8724  139.5028  156.2454 O.2     1  UNL1       -0.2745
     10 N         142.5594  139.7207  158.3073 N.am    1  UNL1       -0.2426
     11 C         142.4817  139.4291  159.7767 C.3     1  UNL1        0.1001
     12 C         143.7509  140.2678  157.5789 C.ar    1  UNL1        0.1569
     13 C         144.3369  141.5877  157.9844 C.ar    1  UNL1        0.1349
     14 N         145.5284  142.1349  157.2559 N.ar    1  UNL1       -0.2215
     15 C         146.1341  141.3622  156.1218 C.ar    1  UNL1        0.2057
     16 C         145.5481  140.0422  155.7162 C.ar    1  UNL1        0.1381
     17 N         144.3565  139.4951  156.4448 N.ar    1  UNL1       -0.2242
     18 S         147.3257  141.9094  155.3933 S.O2    1  UNL1        0.0283
     19 C         148.5173  142.4566  154.6647 C.3     1  UNL1        0.1835
     20 O         147.8335  142.5063  156.6723 O.2     1  UNL1       -0.1671
     21 O         146.8179  141.3124  154.1144 O.2     1  UNL1       -0.1671
     22 C         139.5759  137.6346  164.1093 C.3     1  UNL1        0.1063
     23 C         138.7749  138.5925  164.9404 C.3     1  UNL1        0.1483
     24 O         138.1000  138.1164  166.1924 O.3     1  UNL1       -0.3786
     25 H         137.6281  138.8558  166.6066 H       1  UNL1        0.2108
     26 C         140.3697  140.7127  166.3409 C.3     1  UNL1        0.0306
     27 C         139.4463  141.0868  165.2196 C.ar    1  UNL1       -0.0238
     28 C         138.6489  140.0268  164.5194 C.ar    1  UNL1        0.0015
     29 C         137.7255  140.4009  163.3981 C.ar    1  UNL1       -0.0020
     30 C         137.5994  141.8350  162.9770 C.ar    1  UNL1        0.0060
     31 C         138.3968  142.8951  163.6773 C.ar    1  UNL1        0.0748
     32 C         139.3202  142.5210  164.7986 C.ar    1  UNL1        0.0233
     33 C         139.9742  143.7750  165.2984 C.3     1  UNL1        0.2352
     34 O         139.4549  144.9241  164.4861 O.3     1  UNL1       -0.4404
     35 C         138.4800  144.3802  163.4842 C.2     1  UNL1        0.3413
     36 O         137.7215  145.1810  162.4676 O.2     1  UNL1       -0.2449
@<TRIPOS>BOND
     1    26    27    1
     2    27    28   ar
     3    28    23    1
     4    23    24    1
     5    23    22    1
     6    22     1    1
     7     1     2    1
     8     2     3    1
     9     3     4    1
    10     4     5    1
    11     5     6    1
    12     4     7    1
    13     7     8    1
    14     8     9    2
    15     8    10   am
    16    10    12    1
    17    12    13   ar
    18    13    14   ar
    19    14    15   ar
    20    15    18    1
    21    18    19    1
    22    18    20    2
    23    18    21    2
    24    15    16   ar
    25    16    17   ar
    26    10    11    1
    27    28    29   ar
    28    29    30   ar
    29    30    31   ar
    30    31    32   ar
    31    32    33    1
    32    33    34    1
    33    34    35    1
    34    35    36    2
    35    32    27   ar
    36     6     1    1
    37    17    12   ar
    38    35    31    1
    39    11     4    1
    40    24    25    1
@<TRIPOS>MOLECULE
*****
 36 40 0 0 0
SMALL
GASTEIGER

@<TRIPOS>ATOM
      1 N         142.7253  139.9047  163.7650 N.3     1  UNL1       -0.2704
      2 C         141.4065  139.5574  163.1406 C.3     1  UNL1        0.0722
      3 C         141.3177  139.3105  161.6638 C.3     1  UNL1        0.0195
      4 C         142.5479  139.4109  160.8113 C.3     1  UNL1        0.0300
      5 C         143.8667  139.7582  161.4357 C.3     1  UNL1        0.0195
      6 C         143.9555  140.0051  162.9125 C.3     1  UNL1        0.0722
      7 C         143.6863  139.4748  159.8367 C.3     1  UNL1        0.0874
      8 C         143.1471  139.1601  158.4727 C.2     1  UNL1        0.2305
      9 O         143.9403  139.1123  157.2005 O.2     1  UNL1       -0.2745
     10 N         141.6754  138.9017  158.6044 N.am    1  UNL1       -0.2426
     11 C         141.3050  139.0566  160.0497 C.3     1  UNL1        0.1001
     12 C         140.7386  138.5500  157.4870 C.ar    1  UNL1        0.1569
     13 C         139.5273  139.3964  157.2294 C.ar    1  UNL1        0.1349
     14 N         138.5905  139.0447  156.1119 N.ar    1  UNL1       -0.2215
     15 C         138.8649  137.8466  155.2522 C.ar    1  UNL1        0.2057
     16 C         140.0762  137.0001  155.5098 C.ar    1  UNL1        0.1381
     17 N         141.0130  137.3519  156.6273 N.ar    1  UNL1       -0.2242
     18 S         137.9280  137.4949  154.1347 S.O2    1  UNL1        0.0283
     19 C         136.9911  137.1432  153.0173 C.3     1  UNL1        0.1835
     20 O         139.0927  137.0621  153.2944 O.2     1  UNL1       -0.1671
     21 O         136.7633  137.9277  154.9750 O.2     1  UNL1       -0.1671
     22 C         142.8141  140.1516  165.2419 C.3     1  UNL1        0.1063
     23 C         142.3684  141.4661  165.8107 C.3     1  UNL1        0.1483
     24 O         142.6818  141.8113  167.2364 O.3     1  UNL1       -0.3786
     25 H         142.3253  142.6896  167.4422 H       1  UNL1        0.2108
     26 C         139.3729  141.3445  165.7011 C.3     1  UNL1        0.0306
     27 C         140.1115  142.3746  164.8990 C.ar    1  UNL1       -0.0238
     28 C         141.6093  142.4354  164.9537 C.ar    1  UNL1        0.0015
     29 C         142.3480  143.4654  164.1516 C.ar    1  UNL1       -0.0020
     30 C         141.5889  144.4346  163.2947 C.ar    1  UNL1        0.0060
     31 C         140.0912  144.3739  163.2399 C.ar    1  UNL1        0.0748
     32 C         139.3525  143.3438  164.0421 C.ar    1  UNL1        0.0233
     33 C         137.8850  143.5244  163.7893 C.3     1  UNL1        0.2352
     34 O         137.7167  144.6660  162.8310 O.3     1  UNL1       -0.4404
     35 C         139.0802  145.1910  162.4915 C.2     1  UNL1        0.3413
     36 O         139.3801  146.3327  161.5660 O.2     1  UNL1       -0.2449
@<TRIPOS>BOND
     1    26    27    1
     2    27    28   ar
     3    28    23    1
     4    23    24    1
     5    23    22    1
     6    22     1    1
     7     1     2    1
     8     2     3    1
     9     3     4    1
    10     4     5    1
    11     5     6    1
    12     4     7    1
    13     7     8    1
    14     8     9    2
    15     8    10   am
    16    10    12    1
    17    12    13   ar
    18    13    14   ar
    19    14    15   ar
    20    15    18    1
    21    18    19    1
    22    18    20    2
    23    18    21    2
    24    15    16   ar
    25    16    17   ar
    26    10    11    1
    27    28    29   ar
    28    29    30   ar
    29    30    31   ar
    30    31    32   ar
    31    32    33    1
    32    33    34    1
    33    34    35    1
    34    35    36    2
    35    32    27   ar
    36     6     1    1
    37    17    12   ar
    38    35    31    1
    39    11     4    1
    40    24    25    1
