@<TRIPOS>MOLECULE
*****
 32 35 0 0 0
SMALL
GASTEIGER

@<TRIPOS>ATOM
      1 N         142.9677  140.0553  162.2398 N.3     1  UNL1       -0.2673
      2 C         143.3200  138.7830  162.9518 C.3     1  UNL1        0.1035
      3 C         143.2652  138.7218  164.4496 C.3     1  UNL1        0.1470
      4 C         143.2105  138.6606  165.9474 C.3     1  UNL1        0.1037
      5 N         142.8034  139.8718  166.7331 N.3     1  UNL1       -0.2647
      6 C         142.4511  141.1442  166.0210 C.3     1  UNL1        0.1037
      7 C         142.5059  141.2054  164.5233 C.3     1  UNL1        0.1470
      8 C         142.5606  141.2665  163.0256 C.3     1  UNL1        0.1035
      9 O         142.8582  139.9330  165.2353 O.3     1  UNL1       -0.3530
     10 C         143.0224  140.1165  160.7420 C.3     1  UNL1        0.0916
     11 C         142.1705  139.1936  159.9221 C.3     1  UNL1        0.1131
     12 C         139.7848  139.3256  158.9017 C.3     1  UNL1        0.1149
     13 N         140.6807  139.1940  160.0975 N.3     1  UNL1       -0.1526
     14 S         140.0870  139.0627  161.4687 S.O2    1  UNL1        0.0634
     15 O         140.5597  137.6408  161.5372 O.2     1  UNL1       -0.1528
     16 O         139.6143  140.4846  161.4002 O.2     1  UNL1       -0.1528
     17 C         139.4932  138.9314  162.8399 C.ar    1  UNL1        0.1222
     18 C         139.6992  137.6725  163.6290 C.ar    1  UNL1        0.0206
     19 C         139.1054  137.5412  165.0002 C.ar    1  UNL1        0.0116
     20 C         138.3057  138.6688  165.5823 C.ar    1  UNL1        0.0685
     21 C         138.0997  139.9278  164.7932 C.ar    1  UNL1        0.0116
     22 C         138.6935  140.0591  163.4220 C.ar    1  UNL1        0.0206
     23 C         137.7120  138.5375  166.9535 C.1     1  UNL1        0.1004
     24 N         137.1182  138.4062  168.3247 N.1     1  UNL1       -0.1908
     25 C         142.7487  139.8107  168.2308 C.3     1  UNL1        0.0993
     26 C         141.8190  140.7147  168.9849 C.ar    1  UNL1       -0.0060
     27 C         140.3824  140.3258  169.1719 C.ar    1  UNL1       -0.0006
     28 C         139.4528  141.2297  169.9260 C.ar    1  UNL1        0.0294
     29 C         139.9597  142.5225  170.4930 C.ar    1  UNL1        0.1401
     30 F         139.0300  143.4265  171.2471 F       1  UNL1       -0.2042
     31 C         141.3963  142.9114  170.3059 C.ar    1  UNL1        0.0294
     32 C         142.3259  142.0075  169.5519 C.ar    1  UNL1       -0.0006
@<TRIPOS>BOND
     1    12    13    1
     2    13    11    1
     3    11    10    1
     4    10     1    1
     5     1     2    1
     6     2     3    1
     7     3     4    1
     8     4     5    1
     9     5    25    1
    10    25    26    1
    11    26    27   ar
    12    27    28   ar
    13    28    29   ar
    14    29    30    1
    15    29    31   ar
    16    31    32   ar
    17     5     6    1
    18     6     7    1
    19     7     8    1
    20     7     9    1
    21    13    14    1
    22    14    15    2
    23    14    16    2
    24    14    17    1
    25    17    18   ar
    26    18    19   ar
    27    19    20   ar
    28    20    23    1
    29    23    24    3
    30    20    21   ar
    31    21    22   ar
    32     8     1    1
    33    22    17   ar
    34     9     3    1
    35    32    26   ar
@<TRIPOS>MOLECULE
*****
 32 35 0 0 0
SMALL
GASTEIGER

@<TRIPOS>ATOM
      1 N         143.6001  140.2137  161.3475 N.3     1  UNL1       -0.2673
      2 C         143.0411  141.5873  161.5724 C.3     1  UNL1        0.1035
      3 C         142.9382  142.1364  162.9644 C.3     1  UNL1        0.1470
      4 C         142.8352  142.6856  164.3565 C.3     1  UNL1        0.1037
      5 N         143.2912  141.8611  165.5237 N.3     1  UNL1       -0.2647
      6 C         143.8503  140.4874  165.2987 C.3     1  UNL1        0.1037
      7 C         143.9532  139.9383  163.9066 C.3     1  UNL1        0.1470
      8 C         144.0562  139.3892  162.5146 C.3     1  UNL1        0.1035
      9 O         143.3942  141.3119  164.1316 O.3     1  UNL1       -0.3530
     10 C         143.7031  139.6645  159.9554 C.3     1  UNL1        0.0916
     11 C         142.8409  138.5099  159.5389 C.3     1  UNL1        0.1131
     12 C         140.5030  138.7258  158.4264 C.3     1  UNL1        0.1149
     13 N         141.3488  138.6063  159.6594 N.3     1  UNL1       -0.1526
     14 S         140.7027  138.5831  161.0129 S.O2    1  UNL1        0.0634
     15 O         139.9382  139.8271  160.6692 O.2     1  UNL1       -0.1528
     16 O         141.4671  137.3391  161.3565 O.2     1  UNL1       -0.1528
     17 C         140.0565  138.5599  162.3664 C.ar    1  UNL1        0.1222
     18 C         138.9859  139.5549  162.7035 C.ar    1  UNL1        0.0206
     19 C         138.3397  139.5317  164.0569 C.ar    1  UNL1        0.0116
     20 C         138.7641  138.5135  165.0733 C.ar    1  UNL1        0.0685
     21 C         139.8348  137.5184  164.7362 C.ar    1  UNL1        0.0116
     22 C         140.4809  137.5416  163.3827 C.ar    1  UNL1        0.0206
     23 C         138.1179  138.4903  166.4268 C.1     1  UNL1        0.1004
     24 N         137.4717  138.4671  167.7803 N.1     1  UNL1       -0.1908
     25 C         143.1883  142.4102  166.9157 C.3     1  UNL1        0.0993
     26 C         142.3645  141.6948  167.9452 C.ar    1  UNL1       -0.0060
     27 C         140.8895  141.5197  167.7361 C.ar    1  UNL1       -0.0006
     28 C         140.0658  140.8043  168.7655 C.ar    1  UNL1        0.0294
     29 C         140.7171  140.2640  170.0039 C.ar    1  UNL1        0.1401
     30 F         139.8934  139.5486  171.0334 F       1  UNL1       -0.2042
     31 C         142.1921  140.4391  170.2130 C.ar    1  UNL1        0.0294
     32 C         143.0158  141.1544  169.1836 C.ar    1  UNL1       -0.0006
@<TRIPOS>BOND
     1    12    13    1
     2    13    11    1
     3    11    10    1
     4    10     1    1
     5     1     2    1
     6     2     3    1
     7     3     4    1
     8     4     5    1
     9     5    25    1
    10    25    26    1
    11    26    27   ar
    12    27    28   ar
    13    28    29   ar
    14    29    30    1
    15    29    31   ar
    16    31    32   ar
    17     5     6    1
    18     6     7    1
    19     7     8    1
    20     7     9    1
    21    13    14    1
    22    14    15    2
    23    14    16    2
    24    14    17    1
    25    17    18   ar
    26    18    19   ar
    27    19    20   ar
    28    20    23    1
    29    23    24    3
    30    20    21   ar
    31    21    22   ar
    32     8     1    1
    33    22    17   ar
    34     9     3    1
    35    32    26   ar
@<TRIPOS>MOLECULE
*****
 32 35 0 0 0
SMALL
GASTEIGER

@<TRIPOS>ATOM
      1 N         138.2725  141.9000  160.3800 N.3     1  UNL1       -0.2673
      2 C         138.4280  140.4141  160.5136 C.3     1  UNL1        0.1035
      3 C         138.4241  139.7788  161.8724 C.3     1  UNL1        0.1470
      4 C         138.4202  139.1434  163.2312 C.3     1  UNL1        0.1037
      5 N         138.2608  139.9940  164.4564 N.3     1  UNL1       -0.2647
      6 C         138.1053  141.4800  164.3227 C.3     1  UNL1        0.1037
      7 C         138.1092  142.1153  162.9639 C.3     1  UNL1        0.1470
      8 C         138.1131  142.7506  161.6052 C.3     1  UNL1        0.1035
      9 O         138.2647  140.6294  163.0975 O.3     1  UNL1       -0.3530
     10 C         138.2765  142.5354  159.0211 C.3     1  UNL1        0.0916
     11 C         139.5774  142.8443  158.3414 C.3     1  UNL1        0.1131
     12 C         140.2839  145.2930  157.8368 C.3     1  UNL1        0.1149
     13 N         140.3442  144.0782  158.7147 N.3     1  UNL1       -0.1526
     14 S         141.1714  144.0974  159.9659 S.O2    1  UNL1        0.0634
     15 O         142.0224  142.9892  159.4202 O.2     1  UNL1       -0.1528
     16 O         140.3203  145.2055  160.5115 O.2     1  UNL1       -0.1528
     17 C         141.9985  144.1165  161.2171 C.ar    1  UNL1        0.1222
     18 C         141.5400  144.9059  162.4073 C.ar    1  UNL1        0.0206
     19 C         142.3672  144.9250  163.6584 C.ar    1  UNL1        0.0116
     20 C         143.6528  144.1548  163.7194 C.ar    1  UNL1        0.0685
     21 C         144.1114  143.3654  162.5292 C.ar    1  UNL1        0.0116
     22 C         143.2843  143.3462  161.2780 C.ar    1  UNL1        0.0206
     23 C         144.4800  144.1739  164.9706 C.1     1  UNL1        0.1004
     24 N         145.3071  144.1931  166.2218 N.1     1  UNL1       -0.1908
     25 C         138.2569  139.3587  165.8152 C.3     1  UNL1        0.0993
     26 C         139.4142  139.5708  166.7456 C.ar    1  UNL1       -0.0060
     27 C         140.8191  139.4256  166.2404 C.ar    1  UNL1       -0.0006
     28 C         141.9764  139.6376  167.1708 C.ar    1  UNL1        0.0294
     29 C         141.7288  139.9949  168.6064 C.ar    1  UNL1        0.1401
     30 F         142.8861  140.2070  169.5368 F       1  UNL1       -0.2042
     31 C         140.3239  140.1401  169.1116 C.ar    1  UNL1        0.0294
     32 C         139.1666  139.9281  168.1812 C.ar    1  UNL1       -0.0006
@<TRIPOS>BOND
     1    12    13    1
     2    13    11    1
     3    11    10    1
     4    10     1    1
     5     1     2    1
     6     2     3    1
     7     3     4    1
     8     4     5    1
     9     5    25    1
    10    25    26    1
    11    26    27   ar
    12    27    28   ar
    13    28    29   ar
    14    29    30    1
    15    29    31   ar
    16    31    32   ar
    17     5     6    1
    18     6     7    1
    19     7     8    1
    20     7     9    1
    21    13    14    1
    22    14    15    2
    23    14    16    2
    24    14    17    1
    25    17    18   ar
    26    18    19   ar
    27    19    20   ar
    28    20    23    1
    29    23    24    3
    30    20    21   ar
    31    21    22   ar
    32     8     1    1
    33    22    17   ar
    34     9     3    1
    35    32    26   ar
@<TRIPOS>MOLECULE
*****
 32 35 0 0 0
SMALL
GASTEIGER

@<TRIPOS>ATOM
      1 N         139.4922  138.7065  161.3166 N.3     1  UNL1       -0.2673
      2 C         138.2440  139.2095  161.9790 C.3     1  UNL1        0.1035
      3 C         138.1886  139.3423  163.4720 C.3     1  UNL1        0.1470
      4 C         138.1332  139.4751  164.9652 C.3     1  UNL1        0.1037
      5 N         139.3261  139.1048  165.7958 N.3     1  UNL1       -0.2647
      6 C         140.5744  138.6018  165.1333 C.3     1  UNL1        0.1037
      7 C         140.6297  138.4690  163.6402 C.3     1  UNL1        0.1470
      8 C         140.6850  138.3362  162.1472 C.3     1  UNL1        0.1035
      9 O         139.3815  138.9720  164.3027 O.3     1  UNL1       -0.3530
     10 C         139.5475  138.5737  159.8234 C.3     1  UNL1        0.0916
     11 C         140.4672  139.4503  159.0261 C.3     1  UNL1        0.1131
     12 C         140.3062  141.6375  157.6332 C.3     1  UNL1        0.1149
     13 N         140.2178  140.9275  158.9515 N.3     1  UNL1       -0.1526
     14 S         139.8799  141.6948  160.1954 S.O2    1  UNL1        0.0634
     15 O         138.4686  141.8552  159.7132 O.2     1  UNL1       -0.1528
     16 O         141.2912  141.5345  160.6776 O.2     1  UNL1       -0.1528
     17 C         139.5421  142.4621  161.4392 C.ar    1  UNL1        0.1222
     18 C         138.1756  143.0581  161.6049 C.ar    1  UNL1        0.0206
     19 C         137.8378  143.8253  162.8488 C.ar    1  UNL1        0.0116
     20 C         138.8664  143.9966  163.9269 C.ar    1  UNL1        0.0685
     21 C         140.2330  143.4007  163.7613 C.ar    1  UNL1        0.0116
     22 C         140.5708  142.6334  162.5174 C.ar    1  UNL1        0.0206
     23 C         138.5286  144.7639  165.1708 C.1     1  UNL1        0.1004
     24 N         138.1908  145.5312  166.4146 N.1     1  UNL1       -0.1908
     25 C         139.2708  139.2376  167.2889 C.3     1  UNL1        0.0993
     26 C         139.6552  140.5324  167.9415 C.ar    1  UNL1       -0.0060
     27 C         140.1892  141.6615  167.1107 C.ar    1  UNL1       -0.0006
     28 C         140.5736  142.9562  167.7633 C.ar    1  UNL1        0.0294
     29 C         140.4241  143.1219  169.2465 C.ar    1  UNL1        0.1401
     30 F         140.8085  144.4166  169.8991 F       1  UNL1       -0.2042
     31 C         139.8901  141.9928  170.0773 C.ar    1  UNL1        0.0294
     32 C         139.5057  140.6981  169.4247 C.ar    1  UNL1       -0.0006
@<TRIPOS>BOND
     1    12    13    1
     2    13    11    1
     3    11    10    1
     4    10     1    1
     5     1     2    1
     6     2     3    1
     7     3     4    1
     8     4     5    1
     9     5    25    1
    10    25    26    1
    11    26    27   ar
    12    27    28   ar
    13    28    29   ar
    14    29    30    1
    15    29    31   ar
    16    31    32   ar
    17     5     6    1
    18     6     7    1
    19     7     8    1
    20     7     9    1
    21    13    14    1
    22    14    15    2
    23    14    16    2
    24    14    17    1
    25    17    18   ar
    26    18    19   ar
    27    19    20   ar
    28    20    23    1
    29    23    24    3
    30    20    21   ar
    31    21    22   ar
    32     8     1    1
    33    22    17   ar
    34     9     3    1
    35    32    26   ar
@<TRIPOS>MOLECULE
*****
 32 35 0 0 0
SMALL
GASTEIGER

@<TRIPOS>ATOM
      1 N         141.3111  138.7481  161.5101 N.3     1  UNL1       -0.2673
      2 C         140.7510  137.9198  162.6282 C.3     1  UNL1        0.1035
      3 C         141.1420  138.2119  164.0465 C.3     1  UNL1        0.1470
      4 C         141.5330  138.5040  165.4649 C.3     1  UNL1        0.1037
      5 N         142.4841  139.6244  165.7652 N.3     1  UNL1       -0.2647
      6 C         143.0442  140.4527  164.6470 C.3     1  UNL1        0.1037
      7 C         142.6532  140.1606  163.2287 C.3     1  UNL1        0.1470
      8 C         142.2622  139.8685  161.8103 C.3     1  UNL1        0.1035
      9 O         142.0931  139.3323  164.3468 O.3     1  UNL1       -0.3530
     10 C         140.9201  138.4560  160.0916 C.3     1  UNL1        0.0916
     11 C         139.4833  138.5586  159.6734 C.3     1  UNL1        0.1131
     12 C         138.3209  140.3103  158.1468 C.3     1  UNL1        0.1149
     13 N         138.8496  139.9059  159.4910 N.3     1  UNL1       -0.1526
     14 S         138.7445  140.8488  160.6529 S.O2    1  UNL1        0.0634
     15 O         139.6879  141.7946  159.9707 O.2     1  UNL1       -0.1528
     16 O         137.8011  139.9030  161.3351 O.2     1  UNL1       -0.1528
     17 C         138.6395  141.7916  161.8148 C.ar    1  UNL1        0.1222
     18 C         139.0571  141.3439  163.1841 C.ar    1  UNL1        0.0206
     19 C         138.9520  142.2868  164.3460 C.ar    1  UNL1        0.0116
     20 C         138.4294  143.6774  164.1386 C.ar    1  UNL1        0.0685
     21 C         138.0118  144.1252  162.7692 C.ar    1  UNL1        0.0116
     22 C         138.1168  143.1823  161.6073 C.ar    1  UNL1        0.0206
     23 C         138.3244  144.6202  165.3005 C.1     1  UNL1        0.1004
     24 N         138.2193  145.5631  166.4624 N.1     1  UNL1       -0.1908
     25 C         142.8751  139.9165  167.1835 C.3     1  UNL1        0.0993
     26 C         142.2609  141.0783  167.9068 C.ar    1  UNL1       -0.0060
     27 C         142.8970  141.6028  169.1599 C.ar    1  UNL1       -0.0006
     28 C         142.2828  142.7646  169.8832 C.ar    1  UNL1        0.0294
     29 C         141.0327  143.4019  169.3532 C.ar    1  UNL1        0.1401
     30 F         140.4185  144.5637  170.0765 F       1  UNL1       -0.2042
     31 C         140.3966  142.8774  168.1001 C.ar    1  UNL1        0.0294
     32 C         141.0107  141.7156  167.3769 C.ar    1  UNL1       -0.0006
@<TRIPOS>BOND
     1    12    13    1
     2    13    11    1
     3    11    10    1
     4    10     1    1
     5     1     2    1
     6     2     3    1
     7     3     4    1
     8     4     5    1
     9     5    25    1
    10    25    26    1
    11    26    27   ar
    12    27    28   ar
    13    28    29   ar
    14    29    30    1
    15    29    31   ar
    16    31    32   ar
    17     5     6    1
    18     6     7    1
    19     7     8    1
    20     7     9    1
    21    13    14    1
    22    14    15    2
    23    14    16    2
    24    14    17    1
    25    17    18   ar
    26    18    19   ar
    27    19    20   ar
    28    20    23    1
    29    23    24    3
    30    20    21   ar
    31    21    22   ar
    32     8     1    1
    33    22    17   ar
    34     9     3    1
    35    32    26   ar
@<TRIPOS>MOLECULE
*****
 32 35 0 0 0
SMALL
GASTEIGER

@<TRIPOS>ATOM
      1 N         144.2559  141.7969  160.8163 N.3     1  UNL1       -0.2673
      2 C         143.7962  140.3691  160.8266 C.3     1  UNL1        0.1035
      3 C         143.5808  139.6600  162.1307 C.3     1  UNL1        0.1470
      4 C         143.3654  138.9508  163.4349 C.3     1  UNL1        0.1037
      5 N         143.6096  139.6695  164.7287 N.3     1  UNL1       -0.2647
      6 C         144.0693  141.0973  164.7183 C.3     1  UNL1        0.1037
      7 C         144.2847  141.8064  163.4142 C.3     1  UNL1        0.1470
      8 C         144.5001  142.5156  162.1101 C.3     1  UNL1        0.1035
      9 O         143.8251  140.3787  163.4245 O.3     1  UNL1       -0.3530
     10 C         144.4713  142.5061  159.5122 C.3     1  UNL1        0.0916
     11 C         143.4225  142.4427  158.4418 C.3     1  UNL1        0.1131
     12 C         141.8126  144.0453  157.1808 C.3     1  UNL1        0.1149
     13 N         142.2750  143.4087  158.4578 N.3     1  UNL1       -0.1526
     14 S         141.5899  143.7379  159.7510 S.O2    1  UNL1        0.0634
     15 O         142.1678  145.1214  159.7049 O.2     1  UNL1       -0.1528
     16 O         141.0120  142.3545  159.7971 O.2     1  UNL1       -0.1528
     17 C         140.9048  144.0672  161.0442 C.ar    1  UNL1        0.1222
     18 C         140.8073  143.0327  162.1259 C.ar    1  UNL1        0.0206
     19 C         140.1222  143.3620  163.4190 C.ar    1  UNL1        0.0116
     20 C         139.5347  144.7258  163.6305 C.ar    1  UNL1        0.0685
     21 C         139.6322  145.7604  162.5487 C.ar    1  UNL1        0.0116
     22 C         140.3172  145.4311  161.2555 C.ar    1  UNL1        0.0206
     23 C         138.8496  145.0550  164.9236 C.1     1  UNL1        0.1004
     24 N         138.1645  145.3843  166.2168 N.1     1  UNL1       -0.1908
     25 C         143.3942  138.9604  166.0327 C.3     1  UNL1        0.0993
     26 C         142.2586  139.3625  166.9265 C.ar    1  UNL1       -0.0060
     27 C         140.9005  139.6196  166.3439 C.ar    1  UNL1       -0.0006
     28 C         139.7649  140.0217  167.2376 C.ar    1  UNL1        0.0294
     29 C         139.9874  140.1666  168.7138 C.ar    1  UNL1        0.1401
     30 F         138.8518  140.5687  169.6076 F       1  UNL1       -0.2042
     31 C         141.3455  139.9095  169.2964 C.ar    1  UNL1        0.0294
     32 C         142.4811  139.5074  168.4028 C.ar    1  UNL1       -0.0006
@<TRIPOS>BOND
     1    12    13    1
     2    13    11    1
     3    11    10    1
     4    10     1    1
     5     1     2    1
     6     2     3    1
     7     3     4    1
     8     4     5    1
     9     5    25    1
    10    25    26    1
    11    26    27   ar
    12    27    28   ar
    13    28    29   ar
    14    29    30    1
    15    29    31   ar
    16    31    32   ar
    17     5     6    1
    18     6     7    1
    19     7     8    1
    20     7     9    1
    21    13    14    1
    22    14    15    2
    23    14    16    2
    24    14    17    1
    25    17    18   ar
    26    18    19   ar
    27    19    20   ar
    28    20    23    1
    29    23    24    3
    30    20    21   ar
    31    21    22   ar
    32     8     1    1
    33    22    17   ar
    34     9     3    1
    35    32    26   ar
@<TRIPOS>MOLECULE
*****
 32 35 0 0 0
SMALL
GASTEIGER

@<TRIPOS>ATOM
      1 N         139.0410  139.1692  160.9252 N.3     1  UNL1       -0.2673
      2 C         139.3223  137.9143  161.6972 C.3     1  UNL1        0.1035
      3 C         139.1270  137.8889  163.1842 C.3     1  UNL1        0.1470
      4 C         138.9316  137.8634  164.6712 C.3     1  UNL1        0.1037
      5 N         138.4550  139.0928  165.3862 N.3     1  UNL1       -0.2647
      6 C         138.1736  140.3478  164.6142 C.3     1  UNL1        0.1037
      7 C         138.3690  140.3732  163.1272 C.3     1  UNL1        0.1470
      8 C         138.5643  140.3987  161.6402 C.3     1  UNL1        0.1035
      9 O         138.6503  139.1183  163.8992 O.3     1  UNL1       -0.3530
     10 C         139.2363  139.1947  159.4382 C.3     1  UNL1        0.0916
     11 C         140.5205  139.7099  158.8591 C.3     1  UNL1        0.1131
     12 C         142.5658  138.1112  158.9655 C.3     1  UNL1        0.1149
     13 N         141.8313  139.3164  159.4733 N.3     1  UNL1       -0.1526
     14 S         142.4075  140.1282  160.5953 S.O2    1  UNL1        0.0634
     15 O         142.8836  138.8709  161.2605 O.2     1  UNL1       -0.1528
     16 O         141.9314  141.3855  159.9301 O.2     1  UNL1       -0.1528
     17 C         142.9838  140.9400  161.7173 C.ar    1  UNL1        0.1222
     18 C         142.2399  142.1338  162.2383 C.ar    1  UNL1        0.0206
     19 C         142.8161  142.9456  163.3603 C.ar    1  UNL1        0.0116
     20 C         144.1362  142.5636  163.9614 C.ar    1  UNL1        0.0685
     21 C         144.8802  141.3698  163.4404 C.ar    1  UNL1        0.0116
     22 C         144.3040  140.5580  162.3184 C.ar    1  UNL1        0.0206
     23 C         144.7125  143.3754  165.0834 C.1     1  UNL1        0.1004
     24 N         145.2887  144.1872  166.2054 N.1     1  UNL1       -0.1908
     25 C         138.2596  139.0674  166.8732 C.3     1  UNL1        0.0993
     26 C         139.2579  139.7347  167.7724 C.ar    1  UNL1       -0.0060
     27 C         140.6292  140.0605  167.2593 C.ar    1  UNL1       -0.0006
     28 C         141.6274  140.7277  168.1583 C.ar    1  UNL1        0.0294
     29 C         141.2542  141.0692  169.5704 C.ar    1  UNL1        0.1401
     30 F         142.2524  141.7365  170.4696 F       1  UNL1       -0.2042
     31 C         139.8829  140.7434  170.0835 C.ar    1  UNL1        0.0294
     32 C         138.8847  140.0761  169.1845 C.ar    1  UNL1       -0.0006
@<TRIPOS>BOND
     1    12    13    1
     2    13    11    1
     3    11    10    1
     4    10     1    1
     5     1     2    1
     6     2     3    1
     7     3     4    1
     8     4     5    1
     9     5    25    1
    10    25    26    1
    11    26    27   ar
    12    27    28   ar
    13    28    29   ar
    14    29    30    1
    15    29    31   ar
    16    31    32   ar
    17     5     6    1
    18     6     7    1
    19     7     8    1
    20     7     9    1
    21    13    14    1
    22    14    15    2
    23    14    16    2
    24    14    17    1
    25    17    18   ar
    26    18    19   ar
    27    19    20   ar
    28    20    23    1
    29    23    24    3
    30    20    21   ar
    31    21    22   ar
    32     8     1    1
    33    22    17   ar
    34     9     3    1
    35    32    26   ar
@<TRIPOS>MOLECULE
*****
 32 35 0 0 0
SMALL
GASTEIGER

@<TRIPOS>ATOM
      1 N         141.3309  143.0094  160.4478 N.3     1  UNL1       -0.2673
      2 C         142.1673  141.8244  160.8300 C.3     1  UNL1        0.1035
      3 C         142.6534  141.6732  162.2409 C.3     1  UNL1        0.1470
      4 C         143.1395  141.5220  163.6519 C.3     1  UNL1        0.1037
      5 N         142.7891  142.5559  164.6807 N.3     1  UNL1       -0.2647
      6 C         141.9527  143.7409  164.2985 C.3     1  UNL1        0.1037
      7 C         141.4666  143.8921  162.8875 C.3     1  UNL1        0.1470
      8 C         140.9805  144.0432  161.4766 C.3     1  UNL1        0.1035
      9 O         142.3030  142.7071  163.2697 O.3     1  UNL1       -0.3530
     10 C         140.8448  143.1606  159.0368 C.3     1  UNL1        0.0916
     11 C         139.3730  143.1703  158.7475 C.3     1  UNL1        0.1131
     12 C         137.7920  141.2710  157.9454 C.3     1  UNL1        0.1149
     13 N         138.5415  141.9584  159.0480 N.3     1  UNL1       -0.1526
     14 S         138.4597  141.4341  160.4509 S.O2    1  UNL1        0.0634
     15 O         137.7818  142.7000  160.8845 O.2     1  UNL1       -0.1528
     16 O         139.1375  140.1682  160.0174 O.2     1  UNL1       -0.1528
     17 C         138.3778  140.9097  161.8539 C.ar    1  UNL1        0.1222
     18 C         138.0857  141.8461  162.9887 C.ar    1  UNL1        0.0206
     19 C         138.0039  141.3218  164.3917 C.ar    1  UNL1        0.0116
     20 C         138.2141  139.8610  164.6599 C.ar    1  UNL1        0.0685
     21 C         138.5061  138.9246  163.5251 C.ar    1  UNL1        0.0116
     22 C         138.5880  139.4489  162.1221 C.ar    1  UNL1        0.0206
     23 C         138.1322  139.3367  166.0629 C.1     1  UNL1        0.1004
     24 N         138.0503  138.8124  167.4659 N.1     1  UNL1       -0.1908
     25 C         143.2752  142.4047  166.0917 C.3     1  UNL1        0.0993
     26 C         142.3991  141.7545  167.1212 C.ar    1  UNL1       -0.0060
     27 C         141.1831  142.4697  167.6309 C.ar    1  UNL1       -0.0006
     28 C         140.3071  141.8196  168.6603 C.ar    1  UNL1        0.0294
     29 C         140.6470  140.4542  169.1801 C.ar    1  UNL1        0.1401
     30 F         139.7710  139.8040  170.2096 F       1  UNL1       -0.2042
     31 C         141.8630  139.7390  168.6704 C.ar    1  UNL1        0.0294
     32 C         142.7391  140.3892  167.6409 C.ar    1  UNL1       -0.0006
@<TRIPOS>BOND
     1    12    13    1
     2    13    11    1
     3    11    10    1
     4    10     1    1
     5     1     2    1
     6     2     3    1
     7     3     4    1
     8     4     5    1
     9     5    25    1
    10    25    26    1
    11    26    27   ar
    12    27    28   ar
    13    28    29   ar
    14    29    30    1
    15    29    31   ar
    16    31    32   ar
    17     5     6    1
    18     6     7    1
    19     7     8    1
    20     7     9    1
    21    13    14    1
    22    14    15    2
    23    14    16    2
    24    14    17    1
    25    17    18   ar
    26    18    19   ar
    27    19    20   ar
    28    20    23    1
    29    23    24    3
    30    20    21   ar
    31    21    22   ar
    32     8     1    1
    33    22    17   ar
    34     9     3    1
    35    32    26   ar
@<TRIPOS>MOLECULE
*****
 32 35 0 0 0
SMALL
GASTEIGER

@<TRIPOS>ATOM
      1 N         139.9322  139.6606  159.9150 N.3     1  UNL1       -0.2673
      2 C         139.2375  139.2525  158.6498 C.3     1  UNL1        0.1035
      3 C         139.9421  138.3773  157.6561 C.3     1  UNL1        0.1470
      4 C         140.6467  137.5021  156.6623 C.3     1  UNL1        0.1037
      5 N         142.0460  137.0350  156.9338 N.3     1  UNL1       -0.2647
      6 C         142.7407  137.4431  158.1991 C.3     1  UNL1        0.1037
      7 C         142.0361  138.3183  159.1928 C.3     1  UNL1        0.1470
      8 C         141.3315  139.1935  160.1865 C.3     1  UNL1        0.1035
      9 O         141.3414  137.9102  157.9276 O.3     1  UNL1       -0.3530
     10 C         139.2275  140.5359  160.9088 C.3     1  UNL1        0.0916
     11 C         139.6070  140.4802  162.3589 C.3     1  UNL1        0.1131
     12 C         137.2942  141.4626  163.0194 C.3     1  UNL1        0.1149
     13 N         138.6846  141.0461  163.3978 N.3     1  UNL1       -0.1526
     14 S         139.1528  141.1954  164.8150 S.O2    1  UNL1        0.0634
     15 O         140.0475  142.3257  164.4004 O.2     1  UNL1       -0.1528
     16 O         138.2581  140.0651  165.2296 O.2     1  UNL1       -0.1528
     17 C         139.6210  141.3447  166.2322 C.ar    1  UNL1        0.1222
     18 C         140.2671  142.6229  166.6779 C.ar    1  UNL1        0.0206
     19 C         140.7352  142.7721  168.0952 C.ar    1  UNL1        0.0116
     20 C         140.5573  141.6432  169.0667 C.ar    1  UNL1        0.0685
     21 C         139.9112  140.3650  168.6210 C.ar    1  UNL1        0.0116
     22 C         139.4430  140.2157  167.2037 C.ar    1  UNL1        0.0206
     23 C         141.0255  141.7925  170.4839 C.1     1  UNL1        0.1004
     24 N         141.4936  141.9418  171.9011 N.1     1  UNL1       -0.1908
     25 C         142.7507  136.1598  155.9401 C.3     1  UNL1        0.0993
     26 C         142.7513  134.6705  156.1200 C.ar    1  UNL1       -0.0060
     27 C         141.6977  133.8345  155.4560 C.ar    1  UNL1       -0.0006
     28 C         141.6982  132.3453  155.6359 C.ar    1  UNL1        0.0294
     29 C         142.7524  131.6922  156.4798 C.ar    1  UNL1        0.1401
     30 F         142.7530  130.2030  156.6597 F       1  UNL1       -0.2042
     31 C         143.8060  132.5283  157.1438 C.ar    1  UNL1        0.0294
     32 C         143.8055  134.0175  156.9639 C.ar    1  UNL1       -0.0006
@<TRIPOS>BOND
     1    12    13    1
     2    13    11    1
     3    11    10    1
     4    10     1    1
     5     1     2    1
     6     2     3    1
     7     3     4    1
     8     4     5    1
     9     5    25    1
    10    25    26    1
    11    26    27   ar
    12    27    28   ar
    13    28    29   ar
    14    29    30    1
    15    29    31   ar
    16    31    32   ar
    17     5     6    1
    18     6     7    1
    19     7     8    1
    20     7     9    1
    21    13    14    1
    22    14    15    2
    23    14    16    2
    24    14    17    1
    25    17    18   ar
    26    18    19   ar
    27    19    20   ar
    28    20    23    1
    29    23    24    3
    30    20    21   ar
    31    21    22   ar
    32     8     1    1
    33    22    17   ar
    34     9     3    1
    35    32    26   ar
