@<TRIPOS>MOLECULE
*****
 39 45 0 0 0
SMALL
GASTEIGER

@<TRIPOS>ATOM
      1 C         137.7366  139.4928  162.0177 C.3     1  UNL1        0.0700
      2 C         138.4233  138.2223  162.4231 C.3     1  UNL1        0.0193
      3 C         139.0219  138.0973  163.7928 C.3     1  UNL1        0.0287
      4 C         138.9338  139.2429  164.7572 C.3     1  UNL1        0.0955
      5 C         138.2471  140.5134  164.3519 C.3     1  UNL1        0.0287
      6 C         137.6485  140.6383  162.9821 C.3     1  UNL1        0.0193
      7 O         138.5908  139.3582  164.0176 O.3     1  UNL1       -0.3571
      8 C         138.0496  139.4712  162.7791 C.3     1  UNL1        0.1562
      9 N         137.1381  139.6178  160.6480 N.3     1  UNL1       -0.2926
     10 H         136.9119  138.6727  160.3382 H       1  UNL1        0.1236
     11 C         137.9226  140.2598  159.5425 C.3     1  UNL1        0.1152
     12 C         141.0899  144.1993  161.4657 C.3     1  UNL1        0.1138
     13 N         142.0133  143.1115  161.0033 N.pl3   1  UNL1       -0.2854
     14 C         143.4978  143.2804  161.1373 C.3     1  UNL1        0.1397
     15 C         144.4212  142.1927  160.6749 C.3     1  UNL1        0.2269
     16 O         143.8603  140.9358  160.0784 O.3     1  UNL1       -0.4708
     17 C         142.3759  140.7668  159.9445 C.ar    1  UNL1        0.1700
     18 C         141.8149  139.5100  159.3481 C.ar    1  UNL1        0.0411
     19 C         140.3305  139.3410  159.2141 C.ar    1  UNL1        0.0193
     20 C         139.4070  140.4289  159.6765 C.ar    1  UNL1        0.0765
     21 N         139.9680  141.6857  160.2729 N.ar    1  UNL1       -0.2306
     22 C         141.4525  141.8546  160.4069 C.ar    1  UNL1        0.1658
     23 C         139.5324  139.1179  166.1269 C.3     1  UNL1        0.0604
     24 C         140.6586  140.0192  166.5383 C.3     1  UNL1        0.1335
     25 O         141.1880  139.7230  165.1665 O.3     1  UNL1       -0.3806
     26 C         141.8954  140.8587  166.6630 C.3     1  UNL1        0.1402
     27 N         141.8950  141.4853  168.0259 N.ar    1  UNL1       -0.2915
     28 C         142.8612  142.4091  168.7062 C.ar    1  UNL1        0.2611
     29 O         144.0984  142.8613  167.9885 O.2     1  UNL1       -0.2670
     30 C         142.5903  142.8808  170.1040 C.ar    1  UNL1        0.0623
     31 C         141.3532  142.4286  170.8217 C.ar    1  UNL1        0.0254
     32 C         140.3869  141.5047  170.1414 C.ar    1  UNL1        0.0972
     33 N         139.0889  140.8991  170.6091 N.ar    1  UNL1       -0.2400
     34 C         138.2190  139.9791  169.8049 C.ar    1  UNL1        0.1282
     35 C         138.6213  139.5931  168.4125 C.ar    1  UNL1        0.1588
     36 F         137.7514  138.6731  167.6082 F       1  UNL1       -0.2027
     37 C         139.8937  140.1270  167.8242 C.ar    1  UNL1        0.0500
     38 C         140.6578  141.0331  168.7435 C.ar    1  UNL1        0.0806
     39 H         142.0265  140.1928  165.0352 H       1  UNL1        0.2108
@<TRIPOS>BOND
     1    12    13    1
     2    13    14    1
     3    14    15    1
     4    15    16    1
     5    16    17    1
     6    17    18   ar
     7    18    19   ar
     8    19    20   ar
     9    20    11    1
    10    11     9    1
    11     9     1    1
    12     1     2    1
    13     2     3    1
    14     3     4    1
    15     4    23    1
    16    23    24    1
    17    24    25    1
    18    24    26    1
    19    26    27    1
    20    27    28   ar
    21    28    29    2
    22    28    30   ar
    23    30    31   ar
    24    31    32   ar
    25    32    33   ar
    26    33    34   ar
    27    34    35   ar
    28    35    36    1
    29    35    37   ar
    30    37    38   ar
    31     4     5    1
    32     5     6    1
    33     4     7    1
    34     7     8    1
    35    20    21   ar
    36    21    22   ar
    37    22    13    1
    38    22    17   ar
    39     6     1    1
    40     8     1    1
    41    37    24    1
    42    38    27   ar
    43    38    32   ar
    44     9    10    1
    45    25    39    1
@<TRIPOS>MOLECULE
*****
 39 45 0 0 0
SMALL
GASTEIGER

@<TRIPOS>ATOM
      1 C         144.4468  142.7618  161.6255 C.3     1  UNL1        0.0700
      2 C         144.2515  142.4615  160.1689 C.3     1  UNL1        0.0193
      3 C         143.1213  143.0993  159.4166 C.3     1  UNL1        0.0287
      4 C         142.1863  144.0373  160.1210 C.3     1  UNL1        0.0955
      5 C         142.3816  144.3375  161.5776 C.3     1  UNL1        0.0287
      6 C         143.5118  143.6997  162.3298 C.3     1  UNL1        0.0193
      7 O         142.7912  143.7119  160.5751 O.3     1  UNL1       -0.3571
      8 C         143.8131  143.1353  161.2553 C.3     1  UNL1        0.1562
      9 N         145.5770  142.1240  162.3778 N.3     1  UNL1       -0.2926
     10 H         146.2543  141.8113  161.6823 H       1  UNL1        0.1236
     11 C         145.3122  140.9556  163.2804 C.3     1  UNL1        0.1152
     12 C         140.2919  140.7503  165.2816 C.3     1  UNL1        0.1138
     13 N         140.3873  139.6359  164.2822 N.pl3   1  UNL1       -0.2854
     14 C         139.2037  138.7487  164.0329 C.3     1  UNL1        0.1397
     15 C         139.2990  137.6343  163.0335 C.3     1  UNL1        0.2269
     16 O         140.5780  137.4069  162.2832 O.3     1  UNL1       -0.4708
     17 C         141.7615  138.2941  162.5325 C.ar    1  UNL1        0.1700
     18 C         143.0404  138.0668  161.7824 C.ar    1  UNL1        0.0411
     19 C         144.2239  138.9540  162.0317 C.ar    1  UNL1        0.0193
     20 C         144.1286  140.0685  163.0312 C.ar    1  UNL1        0.0765
     21 N         142.8497  140.2957  163.7813 N.ar    1  UNL1       -0.2306
     22 C         141.6661  139.4085  163.5320 C.ar    1  UNL1        0.1658
     23 C         141.0561  144.6750  159.3687 C.3     1  UNL1        0.0604
     24 C         139.9449  143.8273  158.8240 C.3     1  UNL1        0.1335
     25 O         139.9503  143.2173  160.1943 O.3     1  UNL1       -0.3806
     26 C         138.8349  142.8521  158.5658 C.3     1  UNL1        0.1402
     27 N         138.3757  143.0366  157.1497 N.ar    1  UNL1       -0.2915
     28 C         137.3120  142.3535  156.3424 C.ar    1  UNL1        0.2611
     29 O         136.4857  141.2643  156.9594 O.2     1  UNL1       -0.2670
     30 C         137.0746  142.7597  154.9181 C.ar    1  UNL1        0.0623
     31 C         137.9010  143.8490  154.3012 C.ar    1  UNL1        0.0254
     32 C         138.9647  144.5321  155.1085 C.ar    1  UNL1        0.0972
     33 N         139.9278  145.6364  154.7575 N.ar    1  UNL1       -0.2400
     34 C         140.9502  146.2255  155.6836 C.ar    1  UNL1        0.1282
     35 C         141.0722  145.7146  157.0886 C.ar    1  UNL1        0.1588
     36 F         142.0946  146.3037  158.0147 F       1  UNL1       -0.2027
     37 C         140.1719  144.6146  157.5675 C.ar    1  UNL1        0.0500
     38 C         139.2021  144.1259  156.5328 C.ar    1  UNL1        0.0806
     39 H         139.2705  142.5270  160.2436 H       1  UNL1        0.2108
@<TRIPOS>BOND
     1    12    13    1
     2    13    14    1
     3    14    15    1
     4    15    16    1
     5    16    17    1
     6    17    18   ar
     7    18    19   ar
     8    19    20   ar
     9    20    11    1
    10    11     9    1
    11     9     1    1
    12     1     2    1
    13     2     3    1
    14     3     4    1
    15     4    23    1
    16    23    24    1
    17    24    25    1
    18    24    26    1
    19    26    27    1
    20    27    28   ar
    21    28    29    2
    22    28    30   ar
    23    30    31   ar
    24    31    32   ar
    25    32    33   ar
    26    33    34   ar
    27    34    35   ar
    28    35    36    1
    29    35    37   ar
    30    37    38   ar
    31     4     5    1
    32     5     6    1
    33     4     7    1
    34     7     8    1
    35    20    21   ar
    36    21    22   ar
    37    22    13    1
    38    22    17   ar
    39     6     1    1
    40     8     1    1
    41    37    24    1
    42    38    27   ar
    43    38    32   ar
    44     9    10    1
    45    25    39    1
@<TRIPOS>MOLECULE
*****
 39 45 0 0 0
SMALL
GASTEIGER

@<TRIPOS>ATOM
      1 C         137.7291  139.4366  161.6711 C.3     1  UNL1        0.0700
      2 C         138.1862  138.0370  161.9577 C.3     1  UNL1        0.0193
      3 C         138.9171  137.7328  163.2317 C.3     1  UNL1        0.0287
      4 C         139.1910  138.8283  164.2192 C.3     1  UNL1        0.0955
      5 C         138.7340  140.2279  163.9326 C.3     1  UNL1        0.0287
      6 C         138.0030  140.5321  162.6585 C.3     1  UNL1        0.0193
      7 O         138.7870  139.0434  163.5348 O.3     1  UNL1       -0.3571
      8 C         138.1261  139.3184  162.3828 C.3     1  UNL1        0.1562
      9 N         136.9982  139.7409  160.3970 N.3     1  UNL1       -0.2926
     10 H         136.5786  138.8661  160.0822 H       1  UNL1        0.1236
     11 C         137.7398  140.3120  159.2250 C.3     1  UNL1        0.1152
     12 C         139.3649  136.7327  155.5103 C.3     1  UNL1        0.1138
     13 N         140.6037  137.1765  156.2304 N.pl3   1  UNL1       -0.2854
     14 C         141.9391  136.6146  155.8418 C.3     1  UNL1        0.1397
     15 C         143.1778  137.0584  156.5617 C.3     1  UNL1        0.2269
     16 O         143.0813  138.0642  157.6704 O.3     1  UNL1       -0.4708
     17 C         141.7459  138.6261  158.0590 C.ar    1  UNL1        0.1700
     18 C         141.6493  139.6318  159.1677 C.ar    1  UNL1        0.0411
     19 C         140.3140  140.1938  159.5563 C.ar    1  UNL1        0.0193
     20 C         139.0752  139.7500  158.8363 C.ar    1  UNL1        0.0765
     21 N         139.1718  138.7442  157.7276 N.ar    1  UNL1       -0.2306
     22 C         140.5072  138.1823  157.3390 C.ar    1  UNL1        0.1658
     23 C         139.9220  138.5241  165.4932 C.3     1  UNL1        0.0604
     24 C         139.5903  139.2783  166.7467 C.3     1  UNL1        0.1335
     25 O         138.3212  138.4798  166.7037 O.3     1  UNL1       -0.3806
     26 C         138.9933  139.8656  167.9911 C.3     1  UNL1        0.1402
     27 N         139.9627  140.8694  168.5412 N.ar    1  UNL1       -0.2915
     28 C         139.9108  141.7576  169.7488 C.ar    1  UNL1        0.2611
     29 O         138.7147  141.7245  170.6533 O.2     1  UNL1       -0.2670
     30 C         141.0550  142.6789  170.0519 C.ar    1  UNL1        0.0623
     31 C         142.2512  142.7120  169.1474 C.ar    1  UNL1        0.0254
     32 C         142.3031  141.8238  167.9398 C.ar    1  UNL1        0.0972
     33 N         143.3553  141.6485  166.8755 N.ar    1  UNL1       -0.2400
     34 C         143.2656  140.7075  165.7108 C.ar    1  UNL1        0.1282
     35 C         142.0523  139.8429  165.5369 C.ar    1  UNL1        0.1588
     36 F         141.9627  138.9020  164.3721 F       1  UNL1       -0.2027
     37 C         140.9287  139.9192  166.5276 C.ar    1  UNL1        0.0500
     38 C         141.1589  140.9025  167.6367 C.ar    1  UNL1        0.0806
     39 H         137.7630  138.7188  167.4601 H       1  UNL1        0.2108
@<TRIPOS>BOND
     1    12    13    1
     2    13    14    1
     3    14    15    1
     4    15    16    1
     5    16    17    1
     6    17    18   ar
     7    18    19   ar
     8    19    20   ar
     9    20    11    1
    10    11     9    1
    11     9     1    1
    12     1     2    1
    13     2     3    1
    14     3     4    1
    15     4    23    1
    16    23    24    1
    17    24    25    1
    18    24    26    1
    19    26    27    1
    20    27    28   ar
    21    28    29    2
    22    28    30   ar
    23    30    31   ar
    24    31    32   ar
    25    32    33   ar
    26    33    34   ar
    27    34    35   ar
    28    35    36    1
    29    35    37   ar
    30    37    38   ar
    31     4     5    1
    32     5     6    1
    33     4     7    1
    34     7     8    1
    35    20    21   ar
    36    21    22   ar
    37    22    13    1
    38    22    17   ar
    39     6     1    1
    40     8     1    1
    41    37    24    1
    42    38    27   ar
    43    38    32   ar
    44     9    10    1
    45    25    39    1
@<TRIPOS>MOLECULE
*****
 39 45 0 0 0
SMALL
GASTEIGER

@<TRIPOS>ATOM
      1 C         141.7451  144.5021  161.8282 C.3     1  UNL1        0.0700
      2 C         142.8787  143.5254  161.7238 C.3     1  UNL1        0.0193
      3 C         143.0811  142.4940  162.7940 C.3     1  UNL1        0.0287
      4 C         142.1498  142.4393  163.9687 C.3     1  UNL1        0.0955
      5 C         141.0161  143.4160  164.0731 C.3     1  UNL1        0.0287
      6 C         140.8138  144.4474  163.0029 C.3     1  UNL1        0.0193
      7 O         141.9988  143.0223  163.4072 O.3     1  UNL1       -0.3571
      8 C         141.8158  143.9548  162.4395 C.3     1  UNL1        0.1562
      9 N         141.5426  145.5334  160.7580 N.3     1  UNL1       -0.2926
     10 H         141.2519  146.3913  161.2270 H       1  UNL1        0.1236
     11 C         140.5557  145.2867  159.6558 C.3     1  UNL1        0.1152
     12 C         139.1487  148.1441  155.2848 C.3     1  UNL1        0.1138
     13 N         140.2243  147.1999  154.8361 N.pl3   1  UNL1       -0.2854
     14 C         140.6793  147.2061  153.4067 C.3     1  UNL1        0.1397
     15 C         141.7549  146.2619  152.9579 C.3     1  UNL1        0.2269
     16 O         142.3756  145.3114  153.9384 O.3     1  UNL1       -0.4708
     17 C         141.9206  145.3052  155.3678 C.ar    1  UNL1        0.1700
     18 C         142.5413  144.3548  156.3483 C.ar    1  UNL1        0.0411
     19 C         142.0863  144.3486  157.7776 C.ar    1  UNL1        0.0193
     20 C         141.0107  145.2929  158.2264 C.ar    1  UNL1        0.0765
     21 N         140.3900  146.2433  157.2459 N.ar    1  UNL1       -0.2306
     22 C         140.8450  146.2495  155.8165 C.ar    1  UNL1        0.1658
     23 C         142.3522  141.4080  165.0389 C.3     1  UNL1        0.0604
     24 C         142.4841  141.8303  166.4722 C.3     1  UNL1        0.1335
     25 O         143.6632  142.6097  165.9700 O.3     1  UNL1       -0.3806
     26 C         142.8624  142.4155  167.8005 C.3     1  UNL1        0.1402
     27 N         141.8896  141.9095  168.8240 N.ar    1  UNL1       -0.2915
     28 C         141.7692  142.1504  170.2996 C.ar    1  UNL1        0.2611
     29 O         142.7488  143.0483  170.9953 O.2     1  UNL1       -0.2670
     30 C         140.6692  141.4933  171.0794 C.ar    1  UNL1        0.0623
     31 C         139.6896  140.5954  170.3837 C.ar    1  UNL1        0.0254
     32 C         139.8100  140.3545  168.9081 C.ar    1  UNL1        0.0972
     33 N         138.9857  139.5182  167.9639 N.ar    1  UNL1       -0.2400
     34 C         139.2310  139.3724  166.4913 C.ar    1  UNL1        0.1282
     35 C         140.3768  140.0946  165.8467 C.ar    1  UNL1        0.1588
     36 F         140.6221  139.9489  164.3741 F       1  UNL1       -0.2027
     37 C         141.2774  140.9626  166.6748 C.ar    1  UNL1        0.0500
     38 C         140.9100  141.0115  168.1282 C.ar    1  UNL1        0.0806
     39 H         144.0737  143.0865  166.7082 H       1  UNL1        0.2108
@<TRIPOS>BOND
     1    12    13    1
     2    13    14    1
     3    14    15    1
     4    15    16    1
     5    16    17    1
     6    17    18   ar
     7    18    19   ar
     8    19    20   ar
     9    20    11    1
    10    11     9    1
    11     9     1    1
    12     1     2    1
    13     2     3    1
    14     3     4    1
    15     4    23    1
    16    23    24    1
    17    24    25    1
    18    24    26    1
    19    26    27    1
    20    27    28   ar
    21    28    29    2
    22    28    30   ar
    23    30    31   ar
    24    31    32   ar
    25    32    33   ar
    26    33    34   ar
    27    34    35   ar
    28    35    36    1
    29    35    37   ar
    30    37    38   ar
    31     4     5    1
    32     5     6    1
    33     4     7    1
    34     7     8    1
    35    20    21   ar
    36    21    22   ar
    37    22    13    1
    38    22    17   ar
    39     6     1    1
    40     8     1    1
    41    37    24    1
    42    38    27   ar
    43    38    32   ar
    44     9    10    1
    45    25    39    1
@<TRIPOS>MOLECULE
*****
 39 45 0 0 0
SMALL
GASTEIGER

@<TRIPOS>ATOM
      1 C         137.7359  139.5476  161.3895 C.3     1  UNL1        0.0700
      2 C         138.3656  138.2133  161.6594 C.3     1  UNL1        0.0193
      3 C         139.2113  138.0166  162.8826 C.3     1  UNL1        0.0287
      4 C         139.4272  139.1545  163.8360 C.3     1  UNL1        0.0955
      5 C         138.7974  140.4888  163.5661 C.3     1  UNL1        0.0287
      6 C         137.9518  140.6854  162.3429 C.3     1  UNL1        0.0193
      7 O         138.9558  139.3102  163.1791 O.3     1  UNL1       -0.3571
      8 C         138.1912  139.4879  162.0731 C.3     1  UNL1        0.1562
      9 N         136.8903  139.7443  160.1663 N.3     1  UNL1       -0.2926
     10 H         136.4394  138.8500  159.9731 H       1  UNL1        0.1236
     11 C         137.5215  140.1971  158.8831 C.3     1  UNL1        0.1152
     12 C         142.7876  139.0848  158.3530 C.3     1  UNL1        0.1138
     13 N         142.6951  140.5660  158.5706 N.pl3   1  UNL1       -0.2854
     14 C         143.9422  141.3989  158.6012 C.3     1  UNL1        0.1397
     15 C         143.8498  142.8801  158.8188 C.3     1  UNL1        0.2269
     16 O         142.5101  143.5286  159.0057 O.3     1  UNL1       -0.4708
     17 C         141.2630  142.6957  158.9751 C.ar    1  UNL1        0.1700
     18 C         139.9233  143.3440  159.1620 C.ar    1  UNL1        0.0411
     19 C         138.6762  142.5111  159.1314 C.ar    1  UNL1        0.0193
     20 C         138.7687  141.0299  158.9138 C.ar    1  UNL1        0.0765
     21 N         140.1083  140.3816  158.7269 N.ar    1  UNL1       -0.2306
     22 C         141.3555  141.2145  158.7575 C.ar    1  UNL1        0.1658
     23 C         140.2728  138.9578  165.0592 C.3     1  UNL1        0.0604
     24 C         139.7866  139.4424  166.3929 C.3     1  UNL1        0.1335
     25 O         138.6498  138.4954  166.1464 O.3     1  UNL1       -0.3806
     26 C         139.0628  139.7290  167.6751 C.3     1  UNL1        0.1402
     27 N         139.8539  140.7519  168.4353 N.ar    1  UNL1       -0.2915
     28 C         139.6266  141.4133  169.7623 C.ar    1  UNL1        0.2611
     29 O         138.4139  141.0678  170.5746 O.2     1  UNL1       -0.2670
     30 C         140.6121  142.4203  170.2769 C.ar    1  UNL1        0.0623
     31 C         141.8248  142.7658  169.4646 C.ar    1  UNL1        0.0254
     32 C         142.0521  142.1045  168.1376 C.ar    1  UNL1        0.0972
     33 N         143.1590  142.2529  167.1261 N.ar    1  UNL1       -0.2400
     34 C         143.2523  141.5135  165.8244 C.ar    1  UNL1        0.1282
     35 C         142.1853  140.5311  165.4417 C.ar    1  UNL1        0.1588
     36 F         142.2787  139.7917  164.1400 F       1  UNL1       -0.2027
     37 C         141.0250  140.2882  166.3607 C.ar    1  UNL1        0.0500
     38 C         141.0666  141.0975  167.6230 C.ar    1  UNL1        0.0806
     39 H         138.0339  138.5276  166.8950 H       1  UNL1        0.2108
@<TRIPOS>BOND
     1    12    13    1
     2    13    14    1
     3    14    15    1
     4    15    16    1
     5    16    17    1
     6    17    18   ar
     7    18    19   ar
     8    19    20   ar
     9    20    11    1
    10    11     9    1
    11     9     1    1
    12     1     2    1
    13     2     3    1
    14     3     4    1
    15     4    23    1
    16    23    24    1
    17    24    25    1
    18    24    26    1
    19    26    27    1
    20    27    28   ar
    21    28    29    2
    22    28    30   ar
    23    30    31   ar
    24    31    32   ar
    25    32    33   ar
    26    33    34   ar
    27    34    35   ar
    28    35    36    1
    29    35    37   ar
    30    37    38   ar
    31     4     5    1
    32     5     6    1
    33     4     7    1
    34     7     8    1
    35    20    21   ar
    36    21    22   ar
    37    22    13    1
    38    22    17   ar
    39     6     1    1
    40     8     1    1
    41    37    24    1
    42    38    27   ar
    43    38    32   ar
    44     9    10    1
    45    25    39    1
@<TRIPOS>MOLECULE
*****
 39 45 0 0 0
SMALL
GASTEIGER

@<TRIPOS>ATOM
      1 C         142.0050  144.5818  161.7667 C.3     1  UNL1        0.0700
      2 C         142.8348  143.3392  161.6346 C.3     1  UNL1        0.0193
      3 C         143.0476  142.4496  162.8235 C.3     1  UNL1        0.0287
      4 C         142.4306  142.8026  164.1444 C.3     1  UNL1        0.0955
      5 C         141.6008  144.0452  164.2765 C.3     1  UNL1        0.0287
      6 C         141.3880  144.9347  163.0875 C.3     1  UNL1        0.0193
      7 O         142.2859  143.3210  163.5213 O.3     1  UNL1       -0.3571
      8 C         142.0935  144.1253  162.4463 C.3     1  UNL1        0.1562
      9 N         141.7922  145.4713  160.5778 N.3     1  UNL1       -0.2926
     10 H         141.8123  146.4316  160.9212 H       1  UNL1        0.1236
     11 C         140.5483  145.3332  159.7510 C.3     1  UNL1        0.1152
     12 C         137.8178  142.1458  163.1619 C.3     1  UNL1        0.1138
     13 N         137.8387  141.4258  161.8462 N.pl3   1  UNL1       -0.2854
     14 C         137.1719  140.0889  161.7121 C.3     1  UNL1        0.1397
     15 C         137.1928  139.3688  160.3965 C.3     1  UNL1        0.2269
     16 O         137.8807  139.9856  159.2147 O.3     1  UNL1       -0.4708
     17 C         138.5476  141.3225  159.3488 C.ar    1  UNL1        0.1700
     18 C         139.2355  141.9394  158.1672 C.ar    1  UNL1        0.0411
     19 C         139.9024  143.2763  158.3013 C.ar    1  UNL1        0.0193
     20 C         139.8814  143.9963  159.6170 C.ar    1  UNL1        0.0765
     21 N         139.1935  143.3794  160.7986 N.ar    1  UNL1       -0.2306
     22 C         138.5266  142.0425  160.6645 C.ar    1  UNL1        0.1658
     23 C         142.6435  141.9130  165.3333 C.3     1  UNL1        0.0604
     24 C         141.4779  141.2062  165.9594 C.3     1  UNL1        0.1335
     25 O         141.0946  140.9130  164.5391 O.3     1  UNL1       -0.3806
     26 C         140.2323  140.4382  166.2886 C.3     1  UNL1        0.1402
     27 N         140.0894  140.4044  167.7814 N.ar    1  UNL1       -0.2915
     28 C         139.0550  139.7898  168.6770 C.ar    1  UNL1        0.2611
     29 O         137.8976  139.0426  168.0836 O.2     1  UNL1       -0.2670
     30 C         139.1780  139.9224  170.1661 C.ar    1  UNL1        0.0623
     31 C         140.3354  140.6697  170.7594 C.ar    1  UNL1        0.0254
     32 C         141.3698  141.2842  169.8638 C.ar    1  UNL1        0.0972
     33 N         142.6141  142.0754  170.1740 N.ar    1  UNL1       -0.2400
     34 C         143.5656  142.6335  169.1576 C.ar    1  UNL1        0.1282
     35 C         143.3110  142.4194  167.6949 C.ar    1  UNL1        0.1588
     36 F         144.2625  142.9775  166.6785 F       1  UNL1       -0.2027
     37 C         142.1049  141.6472  167.2487 C.ar    1  UNL1        0.0500
     38 C         141.2468  141.1516  168.3748 C.ar    1  UNL1        0.0806
     39 H         140.2729  140.3977  164.5258 H       1  UNL1        0.2108
@<TRIPOS>BOND
     1    12    13    1
     2    13    14    1
     3    14    15    1
     4    15    16    1
     5    16    17    1
     6    17    18   ar
     7    18    19   ar
     8    19    20   ar
     9    20    11    1
    10    11     9    1
    11     9     1    1
    12     1     2    1
    13     2     3    1
    14     3     4    1
    15     4    23    1
    16    23    24    1
    17    24    25    1
    18    24    26    1
    19    26    27    1
    20    27    28   ar
    21    28    29    2
    22    28    30   ar
    23    30    31   ar
    24    31    32   ar
    25    32    33   ar
    26    33    34   ar
    27    34    35   ar
    28    35    36    1
    29    35    37   ar
    30    37    38   ar
    31     4     5    1
    32     5     6    1
    33     4     7    1
    34     7     8    1
    35    20    21   ar
    36    21    22   ar
    37    22    13    1
    38    22    17   ar
    39     6     1    1
    40     8     1    1
    41    37    24    1
    42    38    27   ar
    43    38    32   ar
    44     9    10    1
    45    25    39    1
@<TRIPOS>MOLECULE
*****
 39 45 0 0 0
SMALL
GASTEIGER

@<TRIPOS>ATOM
      1 C         142.2325  137.7326  157.7829 C.3     1  UNL1        0.0700
      2 C         142.5134  138.1539  159.1948 C.3     1  UNL1        0.0193
      3 C         141.4140  138.7266  160.0394 C.3     1  UNL1        0.0287
      4 C         140.0336  138.8779  159.4720 C.3     1  UNL1        0.0955
      5 C         139.7527  138.4565  158.0601 C.3     1  UNL1        0.0287
      6 C         140.8522  137.8839  157.2156 C.3     1  UNL1        0.0193
      7 O         140.6037  138.5589  158.9709 O.3     1  UNL1       -0.3571
      8 C         141.5978  138.0411  158.2072 C.3     1  UNL1        0.1562
      9 N         143.3319  137.1599  156.9383 N.3     1  UNL1       -0.2926
     10 H         143.9132  137.9435  156.6407 H       1  UNL1        0.1236
     11 C         142.9983  136.3751  155.7043 C.3     1  UNL1        0.1152
     12 C         145.6346  132.3398  158.1572 C.3     1  UNL1        0.1138
     13 N         144.4664  131.7096  157.4586 N.pl3   1  UNL1       -0.2854
     14 C         144.2493  130.2280  157.5478 C.3     1  UNL1        0.1397
     15 C         143.0812  129.5977  156.8492 C.3     1  UNL1        0.2269
     16 O         142.1300  130.4489  156.0612 O.3     1  UNL1       -0.4708
     17 C         142.3471  131.9305  155.9720 C.ar    1  UNL1        0.1700
     18 C         141.3960  132.7817  155.1841 C.ar    1  UNL1        0.0411
     19 C         141.6131  134.2633  155.0949 C.ar    1  UNL1        0.0193
     20 C         142.7813  134.8935  155.7936 C.ar    1  UNL1        0.0765
     21 N         143.7324  134.0423  156.5815 N.ar    1  UNL1       -0.2306
     22 C         143.5153  132.5607  156.6707 C.ar    1  UNL1        0.1658
     23 C         138.9342  139.4506  160.3166 C.3     1  UNL1        0.0604
     24 C         138.9090  140.9194  160.6200 C.3     1  UNL1        0.1335
     25 O         139.1173  141.0681  159.1420 O.3     1  UNL1       -0.3806
     26 C         138.9274  142.4192  160.6144 C.3     1  UNL1        0.1402
     27 N         138.7357  142.8904  162.0256 N.ar    1  UNL1       -0.2915
     28 C         138.6681  144.2639  162.6247 C.ar    1  UNL1        0.2611
     29 O         138.8049  145.4726  161.7469 O.2     1  UNL1       -0.2670
     30 C         138.4637  144.4287  164.1015 C.ar    1  UNL1        0.0623
     31 C         138.3269  143.2200  164.9792 C.ar    1  UNL1        0.0254
     32 C         138.3945  141.8466  164.3801 C.ar    1  UNL1        0.0972
     33 N         138.2911  140.4797  165.0057 N.ar    1  UNL1       -0.2400
     34 C         138.3789  139.1767  164.2678 C.ar    1  UNL1        0.1282
     35 C         138.5864  139.1687  162.7822 C.ar    1  UNL1        0.1588
     36 F         138.6742  137.8657  162.0443 F       1  UNL1       -0.2027
     37 C         138.7060  140.4636  162.0346 C.ar    1  UNL1        0.0500
     38 C         138.5989  141.6818  162.9033 C.ar    1  UNL1        0.0806
     39 H         139.1601  142.0101  158.9147 H       1  UNL1        0.2108
@<TRIPOS>BOND
     1    12    13    1
     2    13    14    1
     3    14    15    1
     4    15    16    1
     5    16    17    1
     6    17    18   ar
     7    18    19   ar
     8    19    20   ar
     9    20    11    1
    10    11     9    1
    11     9     1    1
    12     1     2    1
    13     2     3    1
    14     3     4    1
    15     4    23    1
    16    23    24    1
    17    24    25    1
    18    24    26    1
    19    26    27    1
    20    27    28   ar
    21    28    29    2
    22    28    30   ar
    23    30    31   ar
    24    31    32   ar
    25    32    33   ar
    26    33    34   ar
    27    34    35   ar
    28    35    36    1
    29    35    37   ar
    30    37    38   ar
    31     4     5    1
    32     5     6    1
    33     4     7    1
    34     7     8    1
    35    20    21   ar
    36    21    22   ar
    37    22    13    1
    38    22    17   ar
    39     6     1    1
    40     8     1    1
    41    37    24    1
    42    38    27   ar
    43    38    32   ar
    44     9    10    1
    45    25    39    1
@<TRIPOS>MOLECULE
*****
 39 45 0 0 0
SMALL
GASTEIGER

@<TRIPOS>ATOM
      1 C         140.6301  139.3180  160.1377 C.3     1  UNL1        0.0700
      2 C         141.7025  138.3761  160.5990 C.3     1  UNL1        0.0193
      3 C         141.7581  137.9488  162.0358 C.3     1  UNL1        0.0287
      4 C         140.7413  138.4633  163.0113 C.3     1  UNL1        0.0955
      5 C         139.6689  139.4052  162.5499 C.3     1  UNL1        0.0287
      6 C         139.6134  139.8326  161.1131 C.3     1  UNL1        0.0193
      7 O         140.6703  138.7258  162.2341 O.3     1  UNL1       -0.3571
      8 C         140.6200  139.1122  160.9350 C.3     1  UNL1        0.1562
      9 N         140.5745  139.7454  158.7009 N.3     1  UNL1       -0.2926
     10 H         140.9300  138.9656  158.1478 H       1  UNL1        0.1236
     11 C         141.3182  140.9686  158.2531 C.3     1  UNL1        0.1152
     12 C         140.0329  144.4285  162.2062 C.3     1  UNL1        0.1138
     13 N         141.5299  144.3343  162.2062 N.pl3   1  UNL1       -0.2854
     14 C         142.3314  145.1286  163.1945 C.3     1  UNL1        0.1397
     15 C         143.8284  145.0344  163.1946 C.3     1  UNL1        0.2269
     16 O         144.5241  144.1458  162.2063 O.3     1  UNL1       -0.4708
     17 C         143.7226  143.3515  161.2180 C.ar    1  UNL1        0.1700
     18 C         144.4181  142.4630  160.2298 C.ar    1  UNL1        0.0411
     19 C         143.6166  141.6687  159.2415 C.ar    1  UNL1        0.0193
     20 C         142.1196  141.7629  159.2414 C.ar    1  UNL1        0.0765
     21 N         141.4241  142.6515  160.2297 N.ar    1  UNL1       -0.2306
     22 C         142.2256  143.4458  161.2180 C.ar    1  UNL1        0.1658
     23 C         140.7969  138.0360  164.4480 C.3     1  UNL1        0.0604
     24 C         141.4030  138.9432  165.4774 C.3     1  UNL1        0.1335
     25 O         142.6058  138.8961  164.5824 O.3     1  UNL1       -0.3806
     26 C         142.2605  139.8405  166.3197 C.3     1  UNL1        0.1402
     27 N         141.4610  140.2526  167.5202 N.ar    1  UNL1       -0.2915
     28 C         141.7891  141.1299  168.6917 C.ar    1  UNL1        0.2611
     29 O         143.1407  141.7726  168.7921 O.2     1  UNL1       -0.2670
     30 C         140.7656  141.3646  169.7628 C.ar    1  UNL1        0.0623
     31 C         139.4140  140.7220  169.6624 C.ar    1  UNL1        0.0254
     32 C         139.0859  139.8446  168.4909 C.ar    1  UNL1        0.0972
     33 N         137.8350  139.0840  168.1343 N.ar    1  UNL1       -0.2400
     34 C         137.6520  138.2360  166.9106 C.ar    1  UNL1        0.1282
     35 C         138.7713  138.0944  165.9221 C.ar    1  UNL1        0.1588
     36 F         138.5883  137.2464  164.6984 F       1  UNL1       -0.2027
     37 C         140.0735  138.8006  166.1573 C.ar    1  UNL1        0.0500
     38 C         140.1094  139.6099  167.4198 C.ar    1  UNL1        0.0806
     39 H         143.3136  139.4390  164.9632 H       1  UNL1        0.2108
@<TRIPOS>BOND
     1    12    13    1
     2    13    14    1
     3    14    15    1
     4    15    16    1
     5    16    17    1
     6    17    18   ar
     7    18    19   ar
     8    19    20   ar
     9    20    11    1
    10    11     9    1
    11     9     1    1
    12     1     2    1
    13     2     3    1
    14     3     4    1
    15     4    23    1
    16    23    24    1
    17    24    25    1
    18    24    26    1
    19    26    27    1
    20    27    28   ar
    21    28    29    2
    22    28    30   ar
    23    30    31   ar
    24    31    32   ar
    25    32    33   ar
    26    33    34   ar
    27    34    35   ar
    28    35    36    1
    29    35    37   ar
    30    37    38   ar
    31     4     5    1
    32     5     6    1
    33     4     7    1
    34     7     8    1
    35    20    21   ar
    36    21    22   ar
    37    22    13    1
    38    22    17   ar
    39     6     1    1
    40     8     1    1
    41    37    24    1
    42    38    27   ar
    43    38    32   ar
    44     9    10    1
    45    25    39    1
@<TRIPOS>MOLECULE
*****
 39 45 0 0 0
SMALL
GASTEIGER

@<TRIPOS>ATOM
      1 C         142.5744  138.8211  159.7922 C.3     1  UNL1        0.0700
      2 C         142.4652  137.9513  161.0094 C.3     1  UNL1        0.0193
      3 C         141.7323  138.4458  162.2212 C.3     1  UNL1        0.0287
      4 C         141.1086  139.8101  162.2158 C.3     1  UNL1        0.0955
      5 C         141.2179  140.6798  160.9986 C.3     1  UNL1        0.0287
      6 C         141.9507  140.1853  159.7868 C.3     1  UNL1        0.0193
      7 O         141.5002  139.5825  161.5282 O.3     1  UNL1       -0.3571
      8 C         142.1628  139.1354  160.4325 C.3     1  UNL1        0.1562
      9 N         143.3072  138.3267  158.5804 N.3     1  UNL1       -0.2926
     10 H         144.1085  138.9439  158.4486 H       1  UNL1        0.1236
     11 C         142.6019  138.2445  157.2592 C.3     1  UNL1        0.1152
     12 C         144.4556  133.2208  158.0178 C.3     1  UNL1        0.1138
     13 N         143.3668  133.1120  156.9918 N.pl3   1  UNL1       -0.2854
     14 C         143.0137  131.7744  156.4119 C.3     1  UNL1        0.1397
     15 C         141.9250  131.6655  155.3860 C.3     1  UNL1        0.2269
     16 O         141.1893  132.8943  154.9397 O.3     1  UNL1       -0.4708
     17 C         141.5425  134.2318  155.5196 C.ar    1  UNL1        0.1700
     18 C         140.8069  135.4606  155.0734 C.ar    1  UNL1        0.0411
     19 C         141.1601  136.7981  155.6533 C.ar    1  UNL1        0.0193
     20 C         142.2488  136.9069  156.6793 C.ar    1  UNL1        0.0765
     21 N         142.9844  135.6782  157.1255 N.ar    1  UNL1       -0.2306
     22 C         142.6312  134.3406  156.5456 C.ar    1  UNL1        0.1658
     23 C         140.3758  140.3045  163.4277 C.3     1  UNL1        0.0604
     24 C         141.1399  140.8765  164.5847 C.3     1  UNL1        0.1335
     25 O         142.0248  141.4459  163.5157 O.3     1  UNL1       -0.3806
     26 C         142.0890  141.5676  165.5184 C.3     1  UNL1        0.1402
     27 N         141.6310  141.3058  166.9225 N.ar    1  UNL1       -0.2915
     28 C         142.1768  141.7338  168.2525 C.ar    1  UNL1        0.2611
     29 O         143.4089  142.5867  168.3183 O.2     1  UNL1       -0.2670
     30 C         141.4904  141.3089  169.5167 C.ar    1  UNL1        0.0623
     31 C         140.2582  140.4560  169.4509 C.ar    1  UNL1        0.0254
     32 C         139.7124  140.0280  168.1210 C.ar    1  UNL1        0.0972
     33 N         138.5154  139.1879  167.7580 N.ar    1  UNL1       -0.2400
     34 C         138.0884  138.8393  166.3630 C.ar    1  UNL1        0.1282
     35 C         138.8784  139.3392  165.1899 C.ar    1  UNL1        0.1588
     36 F         138.4514  138.9906  163.7949 F       1  UNL1       -0.2027
     37 C         140.0954  140.1876  165.4119 C.ar    1  UNL1        0.0500
     38 C         140.3989  140.4529  166.8568 C.ar    1  UNL1        0.0806
     39 H         142.7406  141.9558  163.9261 H       1  UNL1        0.2108
@<TRIPOS>BOND
     1    12    13    1
     2    13    14    1
     3    14    15    1
     4    15    16    1
     5    16    17    1
     6    17    18   ar
     7    18    19   ar
     8    19    20   ar
     9    20    11    1
    10    11     9    1
    11     9     1    1
    12     1     2    1
    13     2     3    1
    14     3     4    1
    15     4    23    1
    16    23    24    1
    17    24    25    1
    18    24    26    1
    19    26    27    1
    20    27    28   ar
    21    28    29    2
    22    28    30   ar
    23    30    31   ar
    24    31    32   ar
    25    32    33   ar
    26    33    34   ar
    27    34    35   ar
    28    35    36    1
    29    35    37   ar
    30    37    38   ar
    31     4     5    1
    32     5     6    1
    33     4     7    1
    34     7     8    1
    35    20    21   ar
    36    21    22   ar
    37    22    13    1
    38    22    17   ar
    39     6     1    1
    40     8     1    1
    41    37    24    1
    42    38    27   ar
    43    38    32   ar
    44     9    10    1
    45    25    39    1
