@<TRIPOS>MOLECULE
*****
 31 33 0 0 0
SMALL
GASTEIGER

@<TRIPOS>ATOM
      1 S         138.7819  138.7150  161.6813 S.O2    1  UNL1        0.0768
      2 O         137.4557  138.0163  161.6282 O.2     1  UNL1       -0.1498
      3 O         140.1082  139.4138  161.7343 O.2     1  UNL1       -0.1498
      4 N         138.6216  139.7610  157.8563 N.am    1  UNL1       -0.2671
      5 C         138.5229  139.8348  159.3512 C.2     1  UNL1        0.3231
      6 O         138.0663  141.1021  160.0111 O.2     1  UNL1       -0.2509
      7 N         138.8807  138.6412  160.1863 N.am    1  UNL1       -0.1690
      8 H         138.9212  138.9292  157.4232 H       1  UNL1        0.1565
      9 H         139.1803  137.8094  159.7532 H       1  UNL1        0.1781
     10 C         137.1903  144.5352  154.5159 C.3     1  UNL1        0.0310
     11 C         137.5481  143.3416  155.3510 C.ar    1  UNL1       -0.0218
     12 C         136.4933  142.3411  155.7202 C.ar    1  UNL1       -0.0030
     13 C         136.8511  141.1476  156.5553 C.ar    1  UNL1        0.0144
     14 C         138.2638  140.9545  157.0212 C.ar    1  UNL1        0.0516
     15 C         139.3186  141.9550  156.6521 C.ar    1  UNL1        0.0144
     16 C         138.9607  143.1486  155.8170 C.ar    1  UNL1       -0.0030
     17 C         138.6832  138.7889  163.1762 C.ar    1  UNL1        0.1255
     18 C         138.4187  140.1046  163.8463 C.ar    1  UNL1        0.0233
     19 C         138.3200  140.1784  165.3412 C.ar    1  UNL1        0.0383
     20 C         138.4859  138.9366  166.1661 C.ar    1  UNL1        0.1386
     21 C         138.7504  137.6210  165.4960 C.ar    1  UNL1        0.0383
     22 C         138.8491  137.5471  164.0010 C.ar    1  UNL1        0.0233
     23 O         138.3872  139.0105  167.6609 O.3     1  UNL1       -0.4754
     24 C         139.1887  140.0290  168.4161 C.3     1  UNL1        0.2068
     25 C         139.0563  140.1326  169.9066 C.3     1  UNL1        0.0646
     26 C         140.2818  140.1157  170.7714 C.3     1  UNL1        0.0759
     27 N         141.4218  141.0445  170.4750 N.3     1  UNL1       -0.2726
     28 C         142.7287  140.6633  169.8452 C.3     1  UNL1        0.0721
     29 C         143.5697  141.9007  169.7373 C.3     1  UNL1        0.0188
     30 C         142.7824  143.0467  170.3005 C.3     1  UNL1        0.0188
     31 C         141.4550  142.5175  170.7564 C.3     1  UNL1        0.0721
@<TRIPOS>BOND
     1    10    11    1
     2    11    12   ar
     3    12    13   ar
     4    13    14   ar
     5    14     4    1
     6     4     5   am
     7     5     6    2
     8     5     7   am
     9     7     1    1
    10     1     2    2
    11     1     3    2
    12     1    17    1
    13    17    18   ar
    14    18    19   ar
    15    19    20   ar
    16    20    23    1
    17    23    24    1
    18    24    25    1
    19    25    26    1
    20    26    27    1
    21    27    28    1
    22    28    29    1
    23    29    30    1
    24    30    31    1
    25    20    21   ar
    26    21    22   ar
    27    14    15   ar
    28    15    16   ar
    29    16    11   ar
    30    22    17   ar
    31    31    27    1
    32     4     8    1
    33     7     9    1
@<TRIPOS>MOLECULE
*****
 31 33 0 0 0
SMALL
GASTEIGER

@<TRIPOS>ATOM
      1 S         138.8073  138.8224  161.7230 S.O2    1  UNL1        0.0768
      2 O         137.3769  138.3713  161.7001 O.2     1  UNL1       -0.1498
      3 O         140.2376  139.2735  161.7459 O.2     1  UNL1       -0.1498
      4 N         138.5687  139.8663  157.9015 N.am    1  UNL1       -0.2671
      5 C         138.5193  139.9467  159.3985 C.2     1  UNL1        0.3231
      6 O         138.1325  141.2321  160.0682 O.2     1  UNL1       -0.2509
      7 N         138.8567  138.7419  160.2259 N.am    1  UNL1       -0.1690
      8 H         138.8225  139.0227  157.4620 H       1  UNL1        0.1565
      9 H         139.1105  137.8983  159.7864 H       1  UNL1        0.1781
     10 C         137.2193  144.6857  154.5920 C.3     1  UNL1        0.0310
     11 C         137.5566  143.4808  155.4194 C.ar    1  UNL1       -0.0218
     12 C         138.9411  143.3143  155.9721 C.ar    1  UNL1       -0.0030
     13 C         139.2785  142.1094  156.7994 C.ar    1  UNL1        0.0144
     14 C         138.2313  141.0711  157.0742 C.ar    1  UNL1        0.0516
     15 C         136.8469  141.2377  156.5215 C.ar    1  UNL1        0.0144
     16 C         136.5095  142.4426  155.6941 C.ar    1  UNL1       -0.0030
     17 C         138.7579  138.9029  163.2200 C.ar    1  UNL1        0.1255
     18 C         138.9998  137.6741  164.0456 C.ar    1  UNL1        0.0233
     19 C         138.9505  137.7546  165.5426 C.ar    1  UNL1        0.0383
     20 C         138.6592  139.0639  166.2141 C.ar    1  UNL1        0.1386
     21 C         138.4173  140.2927  165.3886 C.ar    1  UNL1        0.0383
     22 C         138.4666  140.2122  163.8915 C.ar    1  UNL1        0.0233
     23 O         138.6098  139.1444  167.7110 O.3     1  UNL1       -0.4754
     24 C         139.3562  140.2297  168.4288 C.3     1  UNL1        0.2068
     25 C         140.5747  139.8940  169.2366 C.3     1  UNL1        0.0646
     26 C         141.9215  139.8468  168.5780 C.3     1  UNL1        0.0759
     27 N         142.0339  139.9916  167.0892 N.3     1  UNL1       -0.2726
     28 C         141.9025  141.2699  166.3153 C.3     1  UNL1        0.0721
     29 C         142.0847  140.9520  164.8607 C.3     1  UNL1        0.0188
     30 C         142.3287  139.4772  164.7357 C.3     1  UNL1        0.0188
     31 C         142.2973  138.8837  166.1129 C.3     1  UNL1        0.0721
@<TRIPOS>BOND
     1    10    11    1
     2    11    12   ar
     3    12    13   ar
     4    13    14   ar
     5    14     4    1
     6     4     5   am
     7     5     6    2
     8     5     7   am
     9     7     1    1
    10     1     2    2
    11     1     3    2
    12     1    17    1
    13    17    18   ar
    14    18    19   ar
    15    19    20   ar
    16    20    23    1
    17    23    24    1
    18    24    25    1
    19    25    26    1
    20    26    27    1
    21    27    28    1
    22    28    29    1
    23    29    30    1
    24    30    31    1
    25    20    21   ar
    26    21    22   ar
    27    14    15   ar
    28    15    16   ar
    29    16    11   ar
    30    22    17   ar
    31    31    27    1
    32     4     8    1
    33     7     9    1
@<TRIPOS>MOLECULE
*****
 31 33 0 0 0
SMALL
GASTEIGER

@<TRIPOS>ATOM
      1 S         143.0305  139.2306  161.3114 S.O2    1  UNL1        0.0768
      2 O         144.4938  138.9411  161.1533 O.2     1  UNL1       -0.1498
      3 O         141.5673  139.5202  161.4695 O.2     1  UNL1       -0.1498
      4 N         142.6762  138.4000  157.4469 N.am    1  UNL1       -0.2671
      5 C         142.8003  138.2167  158.9305 C.2     1  UNL1        0.3231
      6 O         142.8182  136.8361  159.5167 O.2     1  UNL1       -0.2509
      7 N         142.9064  139.4140  159.8278 N.am    1  UNL1       -0.1690
      8 H         142.6644  139.3061  157.0621 H       1  UNL1        0.1565
      9 H         142.8947  140.3201  159.4430 H       1  UNL1        0.1781
     10 C         142.2514  133.6108  153.8575 C.3     1  UNL1        0.0310
     11 C         142.3576  134.8081  154.7549 C.ar    1  UNL1       -0.0218
     12 C         141.1155  135.4589  155.2873 C.ar    1  UNL1       -0.0030
     13 C         141.2216  136.6562  156.1846 C.ar    1  UNL1        0.0144
     14 C         142.5700  137.2027  156.5496 C.ar    1  UNL1        0.0516
     15 C         143.8121  136.5519  156.0172 C.ar    1  UNL1        0.0144
     16 C         143.7060  135.3546  155.1198 C.ar    1  UNL1       -0.0030
     17 C         143.1546  139.0473  162.7950 C.ar    1  UNL1        0.1255
     18 C         142.0444  138.3966  163.5657 C.ar    1  UNL1        0.0233
     19 C         142.1684  138.2133  165.0493 C.ar    1  UNL1        0.0383
     20 C         143.4026  138.6807  165.7622 C.ar    1  UNL1        0.1386
     21 C         144.5128  139.3314  164.9915 C.ar    1  UNL1        0.0383
     22 C         144.3888  139.5148  163.5079 C.ar    1  UNL1        0.0233
     23 O         143.5266  138.4974  167.2457 O.3     1  UNL1       -0.4754
     24 C         142.6283  139.2606  168.1734 C.3     1  UNL1        0.2068
     25 C         142.8669  140.7216  168.4153 C.3     1  UNL1        0.0646
     26 C         142.0415  141.7457  167.6943 C.3     1  UNL1        0.0759
     27 N         142.4046  142.1532  166.2970 N.3     1  UNL1       -0.2726
     28 C         143.6814  142.8187  165.8764 C.3     1  UNL1        0.0721
     29 C         143.6206  143.0436  164.3946 C.3     1  UNL1        0.0188
     30 C         142.3062  142.5170  163.8994 C.3     1  UNL1        0.0188
     31 C         141.5547  141.9667  165.0752 C.3     1  UNL1        0.0721
@<TRIPOS>BOND
     1    10    11    1
     2    11    12   ar
     3    12    13   ar
     4    13    14   ar
     5    14     4    1
     6     4     5   am
     7     5     6    2
     8     5     7   am
     9     7     1    1
    10     1     2    2
    11     1     3    2
    12     1    17    1
    13    17    18   ar
    14    18    19   ar
    15    19    20   ar
    16    20    23    1
    17    23    24    1
    18    24    25    1
    19    25    26    1
    20    26    27    1
    21    27    28    1
    22    28    29    1
    23    29    30    1
    24    30    31    1
    25    20    21   ar
    26    21    22   ar
    27    14    15   ar
    28    15    16   ar
    29    16    11   ar
    30    22    17   ar
    31    31    27    1
    32     4     8    1
    33     7     9    1
@<TRIPOS>MOLECULE
*****
 31 33 0 0 0
SMALL
GASTEIGER

@<TRIPOS>ATOM
      1 S         141.7549  144.3667  162.6763 S.O2    1  UNL1        0.0768
      2 O         142.2297  143.0157  162.2300 O.2     1  UNL1       -0.1498
      3 O         141.2802  145.7178  163.1227 O.2     1  UNL1       -0.1498
      4 N         141.4547  145.4328  158.8654 N.am    1  UNL1       -0.2671
      5 C         141.1077  144.8665  160.2103 C.2     1  UNL1        0.3231
      6 O         139.7662  144.2336  160.4341 O.2     1  UNL1       -0.2509
      7 N         142.1020  144.9331  161.3314 N.am    1  UNL1       -0.1690
      8 H         142.3351  145.8482  158.7184 H       1  UNL1        0.1565
      9 H         142.9824  145.3485  161.1845 H       1  UNL1        0.1781
     10 C         137.4773  145.1665  154.3810 C.3     1  UNL1        0.0310
     11 C         138.4716  145.2331  155.5021 C.ar    1  UNL1       -0.0218
     12 C         138.9853  143.9690  156.1250 C.ar    1  UNL1       -0.0030
     13 C         139.9797  144.0356  157.2461 C.ar    1  UNL1        0.0144
     14 C         140.4603  145.3663  157.7443 C.ar    1  UNL1        0.0516
     15 C         139.9466  146.6304  157.1214 C.ar    1  UNL1        0.0144
     16 C         138.9522  146.5638  156.0003 C.ar    1  UNL1       -0.0030
     17 C         141.4079  143.8004  164.0212 C.ar    1  UNL1        0.1255
     18 C         142.3984  142.9438  164.7527 C.ar    1  UNL1        0.0233
     19 C         142.0514  142.3775  166.0976 C.ar    1  UNL1        0.0383
     20 C         140.7137  142.6678  166.7111 C.ar    1  UNL1        0.1386
     21 C         139.7232  143.5244  165.9797 C.ar    1  UNL1        0.0383
     22 C         140.0702  144.0908  164.6348 C.ar    1  UNL1        0.0233
     23 O         140.3667  142.1015  168.0560 O.3     1  UNL1       -0.4754
     24 C         140.1886  140.6215  168.2234 C.3     1  UNL1        0.2068
     25 C         139.3498  139.8518  167.2467 C.3     1  UNL1        0.0646
     26 C         139.9944  139.1812  166.0699 C.3     1  UNL1        0.0759
     27 N         139.3408  139.2423  164.7211 N.3     1  UNL1       -0.2726
     28 C         138.9820  140.4907  163.9709 C.3     1  UNL1        0.0721
     29 C         138.3507  140.0857  162.6719 C.3     1  UNL1        0.0188
     30 C         138.3194  138.5869  162.6193 C.3     1  UNL1        0.0188
     31 C         138.9313  138.0657  163.8857 C.3     1  UNL1        0.0721
@<TRIPOS>BOND
     1    10    11    1
     2    11    12   ar
     3    12    13   ar
     4    13    14   ar
     5    14     4    1
     6     4     5   am
     7     5     6    2
     8     5     7   am
     9     7     1    1
    10     1     2    2
    11     1     3    2
    12     1    17    1
    13    17    18   ar
    14    18    19   ar
    15    19    20   ar
    16    20    23    1
    17    23    24    1
    18    24    25    1
    19    25    26    1
    20    26    27    1
    21    27    28    1
    22    28    29    1
    23    29    30    1
    24    30    31    1
    25    20    21   ar
    26    21    22   ar
    27    14    15   ar
    28    15    16   ar
    29    16    11   ar
    30    22    17   ar
    31    31    27    1
    32     4     8    1
    33     7     9    1
@<TRIPOS>MOLECULE
*****
 31 33 0 0 0
SMALL
GASTEIGER

@<TRIPOS>ATOM
      1 S         142.9418  140.2038  159.0671 S.O2    1  UNL1        0.0768
      2 O         143.6460  139.4205  160.1351 O.2     1  UNL1       -0.1498
      3 O         142.2376  140.9871  157.9992 O.2     1  UNL1       -0.1498
      4 N         143.6485  137.2535  156.5085 N.am    1  UNL1       -0.2671
      5 C         142.9797  138.0871  157.5610 C.2     1  UNL1        0.3231
      6 O         141.6799  137.6377  158.1599 O.2     1  UNL1       -0.2509
      7 N         143.6106  139.3701  158.0146 N.am    1  UNL1       -0.1690
      8 H         144.5015  137.5484  156.1154 H       1  UNL1        0.1565
      9 H         144.4637  139.6651  157.6215 H       1  UNL1        0.1781
     10 C         141.1247  132.1214  154.6941 C.3     1  UNL1        0.0310
     11 C         141.7556  133.4044  155.1477 C.ar    1  UNL1       -0.0218
     12 C         141.5736  134.6559  154.3411 C.ar    1  UNL1       -0.0030
     13 C         142.2045  135.9389  154.7947 C.ar    1  UNL1        0.0144
     14 C         143.0175  135.9705  156.0549 C.ar    1  UNL1        0.0516
     15 C         143.1995  134.7190  156.8614 C.ar    1  UNL1        0.0144
     16 C         142.5686  133.4359  156.4078 C.ar    1  UNL1       -0.0030
     17 C         142.2730  141.0374  160.1196 C.ar    1  UNL1        0.1255
     18 C         142.0714  140.4836  161.4990 C.ar    1  UNL1        0.0233
     19 C         141.4025  141.3173  162.5515 C.ar    1  UNL1        0.0383
     20 C         140.9353  142.7046  162.2246 C.ar    1  UNL1        0.1386
     21 C         141.1368  143.2584  160.8452 C.ar    1  UNL1        0.0383
     22 C         141.8057  142.4248  159.7927 C.ar    1  UNL1        0.0233
     23 O         140.2664  143.5382  163.2770 O.3     1  UNL1       -0.4754
     24 C         141.0944  144.3396  164.2374 C.3     1  UNL1        0.2068
     25 C         142.1248  145.2991  163.7200 C.3     1  UNL1        0.0646
     26 C         143.5761  145.0796  164.0289 C.3     1  UNL1        0.0759
     27 N         144.2426  143.7969  163.6281 N.3     1  UNL1       -0.2726
     28 C         144.5658  143.3718  162.2264 C.3     1  UNL1        0.0721
     29 C         145.2259  142.0264  162.2905 C.3     1  UNL1        0.0188
     30 C         145.3106  141.6200  163.7320 C.3     1  UNL1        0.0188
     31 C         144.7029  142.7142  164.5586 C.3     1  UNL1        0.0721
@<TRIPOS>BOND
     1    10    11    1
     2    11    12   ar
     3    12    13   ar
     4    13    14   ar
     5    14     4    1
     6     4     5   am
     7     5     6    2
     8     5     7   am
     9     7     1    1
    10     1     2    2
    11     1     3    2
    12     1    17    1
    13    17    18   ar
    14    18    19   ar
    15    19    20   ar
    16    20    23    1
    17    23    24    1
    18    24    25    1
    19    25    26    1
    20    26    27    1
    21    27    28    1
    22    28    29    1
    23    29    30    1
    24    30    31    1
    25    20    21   ar
    26    21    22   ar
    27    14    15   ar
    28    15    16   ar
    29    16    11   ar
    30    22    17   ar
    31    31    27    1
    32     4     8    1
    33     7     9    1
@<TRIPOS>MOLECULE
*****
 31 33 0 0 0
SMALL
GASTEIGER

@<TRIPOS>ATOM
      1 S         141.4233  144.4622  161.9329 S.O2    1  UNL1        0.0768
      2 O         140.2695  145.4028  162.1167 O.2     1  UNL1       -0.1498
      3 O         142.5771  143.5216  161.7490 O.2     1  UNL1       -0.1498
      4 N         142.0582  145.8670  158.2759 N.am    1  UNL1       -0.2671
      5 C         141.5419  145.0147  159.3969 C.2     1  UNL1        0.3231
      6 O         140.6277  143.8622  159.1032 O.2     1  UNL1       -0.2509
      7 N         141.9397  145.3147  160.8118 N.am    1  UNL1       -0.1690
      8 H         142.6581  146.6234  158.4687 H       1  UNL1        0.1565
      9 H         142.5396  146.0711  161.0046 H       1  UNL1        0.1781
     10 C         140.4670  144.6670  152.6165 C.3     1  UNL1        0.0310
     11 C         140.8648  144.9670  154.0314 C.ar    1  UNL1       -0.0218
     12 C         142.0130  144.2339  154.6591 C.ar    1  UNL1       -0.0030
     13 C         142.4108  144.5340  156.0740 C.ar    1  UNL1        0.0144
     14 C         141.6604  145.5670  156.8611 C.ar    1  UNL1        0.0516
     15 C         140.5122  146.3001  156.2333 C.ar    1  UNL1        0.0144
     16 C         140.1144  146.0001  154.8184 C.ar    1  UNL1       -0.0030
     17 C         140.9070  143.6098  163.0539 C.ar    1  UNL1        0.1255
     18 C         140.4683  144.2462  164.3394 C.ar    1  UNL1        0.0233
     19 C         139.9520  143.3938  165.4604 C.ar    1  UNL1        0.0383
     20 C         139.8744  141.9049  165.2960 C.ar    1  UNL1        0.1386
     21 C         140.3131  141.2684  164.0106 C.ar    1  UNL1        0.0383
     22 C         140.8294  142.1208  162.8895 C.ar    1  UNL1        0.0233
     23 O         139.3581  141.0524  166.4170 O.3     1  UNL1       -0.4754
     24 C         140.1357  139.8503  166.8646 C.3     1  UNL1        0.2068
     25 C         141.5161  140.0168  167.4273 C.3     1  UNL1        0.0646
     26 C         142.7141  139.8083  166.5492 C.3     1  UNL1        0.0759
     27 N         143.3639  140.9808  165.8760 N.3     1  UNL1       -0.2726
     28 C         143.3757  142.3928  166.3821 C.3     1  UNL1        0.0721
     29 C         144.1349  143.2318  165.3974 C.3     1  UNL1        0.0188
     30 C         144.5924  142.3383  164.2827 C.3     1  UNL1        0.0188
     31 C         144.1158  140.9471  164.5785 C.3     1  UNL1        0.0721
@<TRIPOS>BOND
     1    10    11    1
     2    11    12   ar
     3    12    13   ar
     4    13    14   ar
     5    14     4    1
     6     4     5   am
     7     5     6    2
     8     5     7   am
     9     7     1    1
    10     1     2    2
    11     1     3    2
    12     1    17    1
    13    17    18   ar
    14    18    19   ar
    15    19    20   ar
    16    20    23    1
    17    23    24    1
    18    24    25    1
    19    25    26    1
    20    26    27    1
    21    27    28    1
    22    28    29    1
    23    29    30    1
    24    30    31    1
    25    20    21   ar
    26    21    22   ar
    27    14    15   ar
    28    15    16   ar
    29    16    11   ar
    30    22    17   ar
    31    31    27    1
    32     4     8    1
    33     7     9    1
@<TRIPOS>MOLECULE
*****
 31 33 0 0 0
SMALL
GASTEIGER

@<TRIPOS>ATOM
      1 S         142.8338  140.5669  159.7826 S.O2    1  UNL1        0.0768
      2 O         141.7093  141.1399  158.9720 O.2     1  UNL1       -0.1498
      3 O         143.9583  139.9940  160.5933 O.2     1  UNL1       -0.1498
      4 N         143.3817  137.9025  156.8929 N.am    1  UNL1       -0.2671
      5 C         142.8367  138.5700  158.1206 C.2     1  UNL1        0.3231
      6 O         141.7494  137.9080  158.9141 O.2     1  UNL1       -0.2509
      7 N         143.3789  139.8995  158.5548 N.am    1  UNL1       -0.1690
      8 H         144.0953  138.3370  156.3721 H       1  UNL1        0.1565
      9 H         144.0925  140.3339  158.0340 H       1  UNL1        0.1781
     10 C         141.2130  132.5847  155.1558 C.3     1  UNL1        0.0310
     11 C         141.7552  133.9142  155.5901 C.ar    1  UNL1       -0.0218
     12 C         142.9131  133.9774  156.5415 C.ar    1  UNL1       -0.0030
     13 C         143.4553  135.3068  156.9757 C.ar    1  UNL1        0.0144
     14 C         142.8395  136.5731  156.4586 C.ar    1  UNL1        0.0516
     15 C         141.6816  136.5099  155.5072 C.ar    1  UNL1        0.0144
     16 C         141.1395  135.1804  155.0729 C.ar    1  UNL1       -0.0030
     17 C         142.2887  141.2343  161.0104 C.ar    1  UNL1        0.1255
     18 C         141.7473  140.4052  162.1371 C.ar    1  UNL1        0.0233
     19 C         141.2022  141.0726  163.3649 C.ar    1  UNL1        0.0383
     20 C         141.1986  142.5692  163.4660 C.ar    1  UNL1        0.1386
     21 C         141.7400  143.3983  162.3394 C.ar    1  UNL1        0.0383
     22 C         142.2851  142.7309  161.1115 C.ar    1  UNL1        0.0233
     23 O         140.6535  143.2366  164.6938 O.3     1  UNL1       -0.4754
     24 C         139.8383  144.4894  164.5671 C.3     1  UNL1        0.2068
     25 C         138.3444  144.4047  164.4624 C.3     1  UNL1        0.0646
     26 C         137.6976  144.1820  163.1275 C.3     1  UNL1        0.0759
     27 N         137.8235  142.8518  162.4457 N.3     1  UNL1       -0.2726
     28 C         138.3486  142.6174  161.0602 C.3     1  UNL1        0.0721
     29 C         138.2960  141.1433  160.7878 C.3     1  UNL1        0.0188
     30 C         137.7384  140.4667  162.0049 C.3     1  UNL1        0.0188
     31 C         137.4464  141.5226  163.0295 C.3     1  UNL1        0.0721
@<TRIPOS>BOND
     1    10    11    1
     2    11    12   ar
     3    12    13   ar
     4    13    14   ar
     5    14     4    1
     6     4     5   am
     7     5     6    2
     8     5     7   am
     9     7     1    1
    10     1     2    2
    11     1     3    2
    12     1    17    1
    13    17    18   ar
    14    18    19   ar
    15    19    20   ar
    16    20    23    1
    17    23    24    1
    18    24    25    1
    19    25    26    1
    20    26    27    1
    21    27    28    1
    22    28    29    1
    23    29    30    1
    24    30    31    1
    25    20    21   ar
    26    21    22   ar
    27    14    15   ar
    28    15    16   ar
    29    16    11   ar
    30    22    17   ar
    31    31    27    1
    32     4     8    1
    33     7     9    1
@<TRIPOS>MOLECULE
*****
 31 33 0 0 0
SMALL
GASTEIGER

@<TRIPOS>ATOM
      1 S         141.6136  144.5347  161.5202 S.O2    1  UNL1        0.0768
      2 O         143.0931  144.3585  161.3477 O.2     1  UNL1       -0.1498
      3 O         140.1340  144.7110  161.6927 O.2     1  UNL1       -0.1498
      4 N         141.3534  146.1009  157.8830 N.am    1  UNL1       -0.2671
      5 C         141.3634  145.0950  158.9956 C.2     1  UNL1        0.3231
      6 O         141.1330  143.6433  158.6963 O.2     1  UNL1       -0.2509
      7 N         141.6036  145.5407  160.4075 N.am    1  UNL1       -0.1690
      8 H         141.5046  147.0537  158.0794 H       1  UNL1        0.1565
      9 H         141.7548  146.4935  160.6040 H       1  UNL1        0.1781
     10 C         140.3924  144.3180  152.2352 C.3     1  UNL1        0.0310
     11 C         140.6326  144.7638  153.6471 C.ar    1  UNL1       -0.0218
     12 C         142.0154  144.7090  154.2259 C.ar    1  UNL1       -0.0030
     13 C         142.2556  145.1547  155.6378 C.ar    1  UNL1        0.0144
     14 C         141.1132  145.6552  156.4710 C.ar    1  UNL1        0.0516
     15 C         139.7304  145.7100  155.8923 C.ar    1  UNL1        0.0144
     16 C         139.4902  145.2642  154.4803 C.ar    1  UNL1       -0.0030
     17 C         141.6234  143.5288  162.6328 C.ar    1  UNL1        0.1255
     18 C         141.5155  142.0653  162.3217 C.ar    1  UNL1        0.0233
     19 C         141.5253  141.0594  163.4343 C.ar    1  UNL1        0.0383
     20 C         141.6432  141.5168  164.8580 C.ar    1  UNL1        0.1386
     21 C         141.7512  142.9802  165.1691 C.ar    1  UNL1        0.0383
     22 C         141.7413  143.9862  164.0565 C.ar    1  UNL1        0.0233
     23 O         141.6531  140.5108  165.9706 O.3     1  UNL1       -0.4754
     24 C         140.6348  139.4096  165.9952 C.3     1  UNL1        0.2068
     25 C         139.2250  139.7010  166.4164 C.3     1  UNL1        0.0646
     26 C         138.1176  139.6654  165.4054 C.3     1  UNL1        0.0759
     27 N         137.9906  140.7649  164.3929 N.3     1  UNL1       -0.2726
     28 C         138.0350  142.2367  164.6794 C.3     1  UNL1        0.0721
     29 C         137.8688  142.9671  163.3799 C.3     1  UNL1        0.0188
     30 C         137.7217  141.9468  162.2902 C.3     1  UNL1        0.0188
     31 C         137.7970  140.5858  162.9163 C.3     1  UNL1        0.0721
@<TRIPOS>BOND
     1    10    11    1
     2    11    12   ar
     3    12    13   ar
     4    13    14   ar
     5    14     4    1
     6     4     5   am
     7     5     6    2
     8     5     7   am
     9     7     1    1
    10     1     2    2
    11     1     3    2
    12     1    17    1
    13    17    18   ar
    14    18    19   ar
    15    19    20   ar
    16    20    23    1
    17    23    24    1
    18    24    25    1
    19    25    26    1
    20    26    27    1
    21    27    28    1
    22    28    29    1
    23    29    30    1
    24    30    31    1
    25    20    21   ar
    26    21    22   ar
    27    14    15   ar
    28    15    16   ar
    29    16    11   ar
    30    22    17   ar
    31    31    27    1
    32     4     8    1
    33     7     9    1
@<TRIPOS>MOLECULE
*****
 31 33 0 0 0
SMALL
GASTEIGER

@<TRIPOS>ATOM
      1 S         141.9514  137.9724  162.4644 S.O2    1  UNL1        0.0768
      2 O         143.2889  138.6358  162.3198 O.2     1  UNL1       -0.1498
      3 O         140.6139  137.3090  162.6089 O.2     1  UNL1       -0.1498
      4 N         142.0085  138.9800  166.3025 N.am    1  UNL1       -0.2671
      5 C         141.8073  139.0623  164.8184 C.2     1  UNL1        0.3231
      6 O         141.2608  140.3169  164.2040 O.2     1  UNL1       -0.2509
      7 N         142.1526  137.8900  163.9486 N.am    1  UNL1       -0.1690
      8 H         142.3672  138.1565  166.7057 H       1  UNL1        0.1565
      9 H         142.5113  137.0666  164.3518 H       1  UNL1        0.1781
     10 C         140.6273  143.6689  169.7819 C.3     1  UNL1        0.0310
     11 C         140.9726  142.4967  168.9121 C.ar    1  UNL1       -0.0218
     12 C         139.9963  141.3694  168.7503 C.ar    1  UNL1       -0.0030
     13 C         140.3416  140.1972  167.8805 C.ar    1  UNL1        0.0144
     14 C         141.6632  140.1522  167.1724 C.ar    1  UNL1        0.0516
     15 C         142.6394  141.2794  167.3342 C.ar    1  UNL1        0.0144
     16 C         142.2941  142.4517  168.2040 C.ar    1  UNL1       -0.0030
     17 C         141.7501  138.0547  160.9802 C.ar    1  UNL1        0.1255
     18 C         142.8823  137.7319  160.0507 C.ar    1  UNL1        0.0233
     19 C         142.6811  137.8143  158.5666 C.ar    1  UNL1        0.0383
     20 C         141.3476  138.2194  158.0119 C.ar    1  UNL1        0.1386
     21 C         140.2154  138.5422  158.9413 C.ar    1  UNL1        0.0383
     22 C         140.4166  138.4599  160.4255 C.ar    1  UNL1        0.0233
     23 O         141.1463  138.3017  156.5278 O.3     1  UNL1       -0.4754
     24 C         140.3957  137.2184  155.8114 C.3     1  UNL1        0.2068
     25 C         141.1286  136.2652  154.9146 C.3     1  UNL1        0.0646
     26 C         141.1111  134.7945  155.2090 C.3     1  UNL1        0.0759
     27 N         142.3269  134.1303  155.7843 N.3     1  UNL1       -0.2726
     28 C         143.0795  132.9864  155.1718 C.3     1  UNL1        0.0721
     29 C         144.2212  132.6425  156.0819 C.3     1  UNL1        0.0188
     30 C         144.1741  133.5738  157.2568 C.3     1  UNL1        0.0188
     31 C         143.0034  134.4933  157.0729 C.3     1  UNL1        0.0721
@<TRIPOS>BOND
     1    10    11    1
     2    11    12   ar
     3    12    13   ar
     4    13    14   ar
     5    14     4    1
     6     4     5   am
     7     5     6    2
     8     5     7   am
     9     7     1    1
    10     1     2    2
    11     1     3    2
    12     1    17    1
    13    17    18   ar
    14    18    19   ar
    15    19    20   ar
    16    20    23    1
    17    23    24    1
    18    24    25    1
    19    25    26    1
    20    26    27    1
    21    27    28    1
    22    28    29    1
    23    29    30    1
    24    30    31    1
    25    20    21   ar
    26    21    22   ar
    27    14    15   ar
    28    15    16   ar
    29    16    11   ar
    30    22    17   ar
    31    31    27    1
    32     4     8    1
    33     7     9    1
