@<TRIPOS>MOLECULE
*****
 61 66 0 0 0
SMALL
GASTEIGER

@<TRIPOS>ATOM
      1 C         139.9609  143.6119  157.5044 C.3     1  UNL1        0.2066
      2 O         139.8415  144.5915  158.6341 O.3     1  UNL1       -0.4483
      3 C         140.0076  145.0427  160.0549 C.2     1  UNL1        0.3235
      4 O         139.4402  146.4311  160.0328 O.2     1  UNL1       -0.2496
      5 C         140.4261  144.8760  161.4856 C.3     1  UNL1        0.1563
      6 C         140.0450  146.1901  162.1002 C.3     1  UNL1        0.0196
      7 C         141.0142  144.1244  162.6429 C.2     1  UNL1        0.1629
      8 O         140.8948  145.1041  163.7724 O.2     1  UNL1       -0.2954
      9 C         141.6555  142.9368  163.2974 C.3     1  UNL1        0.0877
     10 C         141.8215  143.3880  164.7183 C.3     1  UNL1        0.0104
     11 C         142.2229  141.5484  163.3196 C.3     1  UNL1        0.1490
     12 C         142.6040  140.2342  162.7051 C.3     1  UNL1        0.1141
     13 C         142.9453  140.2760  164.1651 C.3     1  UNL1        0.0318
     14 O         143.2345  138.9506  163.1573 O.3     1  UNL1       -0.3843
     15 C         142.7234  139.2546  161.5755 C.3     1  UNL1        0.0367
     16 C         142.5574  138.8034  160.1547 C.3     1  UNL1        0.0601
     17 C         143.1248  137.4150  160.1769 C.3     1  UNL1        0.0078
     18 C         142.1389  138.9701  158.7239 C.2     1  UNL1        0.1516
     19 O         142.5200  137.6560  158.1093 O.2     1  UNL1       -0.2960
     20 C         141.5507  139.7216  157.5666 C.3     1  UNL1        0.0794
     21 C         141.6701  138.7420  156.4371 C.3     1  UNL1        0.0096
     22 C         140.9095  140.9093  156.9121 C.3     1  UNL1        0.1254
     23 N         140.7997  140.3415  155.5280 N.am    1  UNL1       -0.2426
     24 C         140.1644  141.3789  154.6504 C.2     1  UNL1        0.4049
     25 O         139.8647  141.2331  153.1880 O.2     1  UNL1       -0.2262
     26 O         139.8816  142.5879  155.4921 O.3     1  UNL1       -0.4365
     27 C         140.3421  142.2976  156.8899 C.3     1  UNL1        0.1908
     28 C         139.7025  143.5169  156.2947 C.3     1  UNL1        0.0493
     29 H         143.4431  139.0084  164.1029 H       1  UNL1        0.2103
     30 C         141.2467  138.9760  155.0972 C.3     1  UNL1        0.1105
     31 C         140.6835  137.5904  155.2116 C.3     1  UNL1        0.0939
     32 N         141.8788  137.0449  154.4880 N.3     1  UNL1       -0.2659
     33 C         142.4420  138.4304  154.3737 C.3     1  UNL1        0.0939
     34 C         142.3257  135.6793  154.0572 C.3     1  UNL1        0.1024
     35 C         142.6890  134.6498  155.0859 C.ar    1  UNL1        0.0321
     36 C         143.5921  135.0153  156.2264 C.ar    1  UNL1        0.1501
     37 O         144.1319  136.4103  156.3383 O.3     1  UNL1       -0.5042
     38 C         143.9554  133.9858  157.2551 C.ar    1  UNL1        0.1368
     39 N         143.4155  132.5908  157.1432 N.ar    1  UNL1       -0.2219
     40 C         142.5124  132.2253  156.0026 C.ar    1  UNL1        0.1622
     41 N         141.9726  130.8302  155.8908 N.ar    1  UNL1       -0.2251
     42 C         141.0695  130.4647  154.7503 C.ar    1  UNL1        0.1006
     43 C         140.7062  131.4943  153.7216 C.ar    1  UNL1        0.0208
     44 C         141.2460  132.8893  153.8334 C.ar    1  UNL1        0.0045
     45 C         142.1492  133.2548  154.9740 C.ar    1  UNL1        0.0361
     46 H         143.9050  137.0534  155.6957 H       1  UNL1        0.2922
     47 C         139.7853  145.7818  156.0866 C.3     1  UNL1        0.0040
     48 C         139.3728  144.3634  156.3472 C.3     1  UNL1        0.0474
     49 O         142.6414  141.3817  164.7504 O.3     1  UNL1       -0.3283
     50 C         141.6668  140.8521  165.7600 C.3     1  UNL1        0.2643
     51 O         140.4430  140.1134  165.3055 O.3     1  UNL1       -0.3311
     52 C         139.4683  139.5837  166.3152 C.3     1  UNL1        0.1194
     53 C         138.2446  138.8449  165.8607 C.3     1  UNL1        0.0322
     54 C         139.7174  139.7929  167.7795 C.3     1  UNL1        0.0482
     55 C         140.9411  140.5317  168.2342 C.3     1  UNL1        0.0921
     56 C         141.9158  141.0613  167.2244 C.3     1  UNL1        0.1815
     57 O         143.1396  141.8001  167.6790 O.3     1  UNL1       -0.3783
     58 H         143.1480  141.8465  168.6478 H       1  UNL1        0.2106
     59 N         141.1902  140.7408  169.6985 N.3     1  UNL1       -0.2692
     60 C         142.1805  139.8770  170.4217 C.3     1  UNL1        0.0897
     61 C         140.4489  141.8138  170.4395 C.3     1  UNL1        0.0897
@<TRIPOS>BOND
     1    47    48    1
     2     1    48    1
     3     1     2    1
     4     2     3    1
     5     3     4    2
     6     3     5    1
     7     5     6    1
     8     5     7    1
     9     7     8    2
    10     7     9    1
    11     9    10    1
    12     9    11    1
    13    11    49    1
    14    50    49    1
    15    50    51    1
    16    51    52    1
    17    52    53    1
    18    52    54    1
    19    54    55    1
    20    55    59    1
    21    59    60    1
    22    59    61    1
    23    55    56    1
    24    56    57    1
    25    11    12    1
    26    12    13    1
    27    12    14    1
    28    12    15    1
    29    15    16    1
    30    16    17    1
    31    16    18    1
    32    18    19    2
    33    18    20    1
    34    20    21    1
    35    20    22    1
    36    22    23    1
    37    23    30    1
    38    30    31    1
    39    31    32    1
    40    32    34    1
    41    34    35    1
    42    35    36   ar
    43    36    37    1
    44    36    38   ar
    45    38    39   ar
    46    39    40   ar
    47    40    41   ar
    48    41    42   ar
    49    42    43   ar
    50    43    44   ar
    51    44    45   ar
    52    32    33    1
    53    23    24   am
    54    24    25    2
    55    24    26    1
    56    26    27    1
    57    27    28    1
    58    27     1    1
    59    56    50    1
    60    27    22    1
    61    33    30    1
    62    45    35   ar
    63    45    40   ar
    64    57    58    1
    65    14    29    1
    66    37    46    1
@<TRIPOS>MOLECULE
*****
 61 66 0 0 0
SMALL
GASTEIGER

@<TRIPOS>ATOM
      1 C         140.6421  143.0285  157.3441 C.3     1  UNL1        0.2066
      2 O         140.2781  144.1486  158.2731 O.3     1  UNL1       -0.4483
      3 C         140.1929  144.8210  159.6113 C.2     1  UNL1        0.3235
      4 O         139.5286  146.1262  159.2873 O.2     1  UNL1       -0.2496
      5 C         140.4034  144.9124  161.0935 C.3     1  UNL1        0.1563
      6 C         139.8327  146.2583  161.4293 C.3     1  UNL1        0.0196
      7 C         140.8678  144.4049  162.4265 C.2     1  UNL1        0.1629
      8 O         140.5038  145.5250  163.3554 O.2     1  UNL1       -0.2954
      9 C         141.4943  143.3989  163.3460 C.3     1  UNL1        0.0877
     10 C         141.4090  144.0713  164.6842 C.3     1  UNL1        0.0104
     11 C         142.1586  142.0936  163.6700 C.3     1  UNL1        0.1490
     12 C         142.7293  140.7476  163.3343 C.3     1  UNL1        0.1141
     13 C         142.8430  141.0408  164.8010 C.3     1  UNL1        0.0318
     14 O         143.3830  139.6159  164.0702 O.3     1  UNL1       -0.3843
     15 C         143.0933  139.6275  162.4053 C.3     1  UNL1        0.0367
     16 C         143.1785  138.9552  161.0673 C.3     1  UNL1        0.0601
     17 C         143.8428  137.6499  161.3913 C.3     1  UNL1        0.0078
     18 C         142.9680  138.8637  159.5849 C.2     1  UNL1        0.1516
     19 O         143.5387  137.5178  159.2491 O.2     1  UNL1       -0.2960
     20 C         142.5036  139.3712  158.2520 C.3     1  UNL1        0.0794
     21 C         142.8676  138.2511  157.3231 C.3     1  UNL1        0.0096
     22 C         141.8772  140.3772  157.3324 C.3     1  UNL1        0.1254
     23 N         142.0213  139.6013  156.0568 N.am    1  UNL1       -0.2426
     24 C         141.4461  140.4270  154.9445 C.2     1  UNL1        0.4049
     25 O         141.3819  140.0353  153.4979 O.2     1  UNL1       -0.2262
     26 O         140.9464  141.7132  155.5326 O.3     1  UNL1       -0.4365
     27 C         141.2128  141.6825  157.0085 C.3     1  UNL1        0.1908
     28 C         140.5767  142.7287  156.1420 C.3     1  UNL1        0.0493
     29 H         143.4420  139.8347  165.0134 H       1  UNL1        0.2103
     30 C         142.6333  138.2389  155.9180 C.3     1  UNL1        0.1105
     31 C         143.8936  137.6993  155.3093 C.3     1  UNL1        0.0939
     32 N         143.4988  136.3122  155.7216 N.3     1  UNL1       -0.2659
     33 C         142.2386  136.8518  156.3304 C.3     1  UNL1        0.0939
     34 C         144.1109  134.9497  155.5828 C.3     1  UNL1        0.1024
     35 C         143.2359  133.7553  155.3424 C.ar    1  UNL1        0.0321
     36 C         142.1554  133.8141  154.3035 C.ar    1  UNL1        0.1501
     37 O         141.9499  135.0672  153.5052 O.3     1  UNL1       -0.5042
     38 C         141.2805  132.6197  154.0631 C.ar    1  UNL1        0.1368
     39 N         141.4860  131.3665  154.8615 N.ar    1  UNL1       -0.2219
     40 C         142.5665  131.3078  155.9003 C.ar    1  UNL1        0.1622
     41 N         142.7720  130.0546  156.6987 N.ar    1  UNL1       -0.2251
     42 C         143.8525  129.9959  157.7375 C.ar    1  UNL1        0.1006
     43 C         144.7275  131.1904  157.9779 C.ar    1  UNL1        0.0208
     44 C         144.5220  132.4435  157.1795 C.ar    1  UNL1        0.0045
     45 C         143.4415  132.5022  156.1407 C.ar    1  UNL1        0.0361
     46 H         142.4965  135.8133  153.6554 H       1  UNL1        0.2922
     47 C         138.7589  143.9894  155.8342 C.3     1  UNL1        0.0040
     48 C         140.1777  143.5360  156.0112 C.3     1  UNL1        0.0474
     49 O         142.3691  142.1851  165.1524 O.3     1  UNL1       -0.3283
     50 C         141.5017  141.3910  166.0834 C.3     1  UNL1        0.2643
     51 O         140.2411  140.7561  165.5758 O.3     1  UNL1       -0.3311
     52 C         139.3736  139.9619  166.5069 C.3     1  UNL1        0.1194
     53 C         138.1130  139.3270  165.9993 C.3     1  UNL1        0.0322
     54 C         139.7668  139.8028  167.9457 C.3     1  UNL1        0.0482
     55 C         141.0274  140.4377  168.4534 C.3     1  UNL1        0.0921
     56 C         141.8948  141.2319  167.5222 C.3     1  UNL1        0.1815
     57 O         143.1555  141.8668  168.0299 O.3     1  UNL1       -0.3783
     58 H         143.2602  141.6681  168.9735 H       1  UNL1        0.2106
     59 N         141.4205  140.2786  169.8922 N.3     1  UNL1       -0.2692
     60 C         142.4686  139.2769  170.2769 C.3     1  UNL1        0.0897
     61 C         140.7656  141.1212  170.9462 C.3     1  UNL1        0.0897
@<TRIPOS>BOND
     1    47    48    1
     2     1    48    1
     3     1     2    1
     4     2     3    1
     5     3     4    2
     6     3     5    1
     7     5     6    1
     8     5     7    1
     9     7     8    2
    10     7     9    1
    11     9    10    1
    12     9    11    1
    13    11    49    1
    14    50    49    1
    15    50    51    1
    16    51    52    1
    17    52    53    1
    18    52    54    1
    19    54    55    1
    20    55    59    1
    21    59    60    1
    22    59    61    1
    23    55    56    1
    24    56    57    1
    25    11    12    1
    26    12    13    1
    27    12    14    1
    28    12    15    1
    29    15    16    1
    30    16    17    1
    31    16    18    1
    32    18    19    2
    33    18    20    1
    34    20    21    1
    35    20    22    1
    36    22    23    1
    37    23    30    1
    38    30    31    1
    39    31    32    1
    40    32    34    1
    41    34    35    1
    42    35    36   ar
    43    36    37    1
    44    36    38   ar
    45    38    39   ar
    46    39    40   ar
    47    40    41   ar
    48    41    42   ar
    49    42    43   ar
    50    43    44   ar
    51    44    45   ar
    52    32    33    1
    53    23    24   am
    54    24    25    2
    55    24    26    1
    56    26    27    1
    57    27    28    1
    58    27     1    1
    59    56    50    1
    60    27    22    1
    61    33    30    1
    62    45    35   ar
    63    45    40   ar
    64    57    58    1
    65    14    29    1
    66    37    46    1
@<TRIPOS>MOLECULE
*****
 61 66 0 0 0
SMALL
GASTEIGER

@<TRIPOS>ATOM
      1 C         140.8767  144.8185  157.4848 C.3     1  UNL1        0.2066
      2 O         141.3166  144.7154  156.0544 O.3     1  UNL1       -0.4483
      3 C         141.8760  143.9997  154.8607 C.2     1  UNL1        0.3235
      4 O         141.8562  145.0578  153.7976 O.2     1  UNL1       -0.2496
      5 C         142.4443  142.8132  154.1403 C.3     1  UNL1        0.1563
      6 C         142.6774  143.3431  152.7565 C.3     1  UNL1        0.0196
      7 C         142.9088  141.3908  154.0355 C.2     1  UNL1        0.1629
      8 O         143.3486  141.2878  152.6052 O.2     1  UNL1       -0.2954
      9 C         143.1776  140.0143  154.5674 C.3     1  UNL1        0.0877
     10 C         143.7370  139.2986  153.3738 C.3     1  UNL1        0.0104
     11 C         143.1974  138.9562  155.6305 C.3     1  UNL1        0.1490
     12 C         142.9643  138.4262  157.0143 C.3     1  UNL1        0.1141
     13 C         143.5425  137.3744  156.1148 C.3     1  UNL1        0.0318
     14 O         143.1537  137.1277  157.7408 O.3     1  UNL1       -0.3843
     15 C         142.5244  138.5293  158.4447 C.3     1  UNL1        0.0367
     16 C         141.9650  139.2450  159.6383 C.3     1  UNL1        0.0601
     17 C         141.9848  138.1869  160.7014 C.3     1  UNL1        0.0078
     18 C         141.3968  140.4315  160.3588 C.2     1  UNL1        0.1516
     19 O         141.1636  139.9016  161.7426 O.2     1  UNL1       -0.2960
     20 C         140.9322  141.8539  160.4636 C.3     1  UNL1        0.0794
     21 C         140.4924  141.9570  161.8939 C.3     1  UNL1        0.0096
     22 C         140.6634  143.2305  159.9317 C.3     1  UNL1        0.1254
     23 N         140.1195  143.8314  161.1938 N.am    1  UNL1       -0.2426
     24 C         139.7635  145.2608  160.9108 C.2     1  UNL1        0.4049
     25 O         139.1851  146.2364  161.8925 O.2     1  UNL1       -0.2262
     26 O         140.0874  145.5433  159.4737 O.3     1  UNL1       -0.4365
     27 C         140.6436  144.2885  158.8686 C.3     1  UNL1        0.1908
     28 C         140.3981  145.6449  158.2769 C.3     1  UNL1        0.0493
     29 H         143.5279  136.4695  157.1344 H       1  UNL1        0.2103
     30 C         139.9596  143.1266  162.5082 C.3     1  UNL1        0.1105
     31 C         138.9065  142.2522  163.1217 C.3     1  UNL1        0.0939
     32 N         139.7335  142.1299  164.3671 N.3     1  UNL1       -0.2659
     33 C         140.7866  143.0043  163.7537 C.3     1  UNL1        0.0939
     34 C         139.5735  141.4250  165.6815 C.3     1  UNL1        0.1024
     35 C         140.7385  140.7048  166.2931 C.ar    1  UNL1        0.0321
     36 C         141.3173  139.5004  165.6115 C.ar    1  UNL1        0.1501
     37 O         140.7311  139.0163  164.3185 O.3     1  UNL1       -0.5042
     38 C         142.4823  138.7801  166.2231 C.ar    1  UNL1        0.1368
     39 N         143.0685  139.2643  167.5161 N.ar    1  UNL1       -0.2219
     40 C         142.4897  140.4686  168.1976 C.ar    1  UNL1        0.1622
     41 N         143.0759  140.9527  169.4907 N.ar    1  UNL1       -0.2251
     42 C         142.4971  142.1571  170.1722 C.ar    1  UNL1        0.1006
     43 C         141.3321  142.8774  169.5606 C.ar    1  UNL1        0.0208
     44 C         140.7459  142.3933  168.2677 C.ar    1  UNL1        0.0045
     45 C         141.3247  141.1889  167.5861 C.ar    1  UNL1        0.0361
     46 H         140.0034  139.4662  163.9365 H       1  UNL1        0.2922
     47 C         139.5637  146.8346  156.5044 C.3     1  UNL1        0.0040
     48 C         140.4122  146.2409  157.5895 C.3     1  UNL1        0.0474
     49 O         143.7657  137.7697  154.9100 O.3     1  UNL1       -0.3283
     50 C         142.8694  136.6355  154.5095 C.3     1  UNL1        0.2643
     51 O         141.6312  136.9054  153.7071 O.3     1  UNL1       -0.3311
     52 C         140.7349  135.7713  153.3066 C.3     1  UNL1        0.1194
     53 C         139.4967  136.0411  152.5042 C.3     1  UNL1        0.0322
     54 C         141.0769  134.3671  153.7085 C.3     1  UNL1        0.0482
     55 C         142.3152  134.0972  154.5110 C.3     1  UNL1        0.0921
     56 C         143.2114  135.2314  154.9114 C.3     1  UNL1        0.1815
     57 O         144.4497  134.9615  155.7139 O.3     1  UNL1       -0.3783
     58 H         144.5215  134.0098  155.8873 H       1  UNL1        0.2106
     59 N         142.6571  132.6931  154.9129 N.3     1  UNL1       -0.2692
     60 C         142.5573  132.2793  156.3511 C.3     1  UNL1        0.0897
     61 C         143.0989  131.7029  153.8764 C.3     1  UNL1        0.0897
@<TRIPOS>BOND
     1    47    48    1
     2     1    48    1
     3     1     2    1
     4     2     3    1
     5     3     4    2
     6     3     5    1
     7     5     6    1
     8     5     7    1
     9     7     8    2
    10     7     9    1
    11     9    10    1
    12     9    11    1
    13    11    49    1
    14    50    49    1
    15    50    51    1
    16    51    52    1
    17    52    53    1
    18    52    54    1
    19    54    55    1
    20    55    59    1
    21    59    60    1
    22    59    61    1
    23    55    56    1
    24    56    57    1
    25    11    12    1
    26    12    13    1
    27    12    14    1
    28    12    15    1
    29    15    16    1
    30    16    17    1
    31    16    18    1
    32    18    19    2
    33    18    20    1
    34    20    21    1
    35    20    22    1
    36    22    23    1
    37    23    30    1
    38    30    31    1
    39    31    32    1
    40    32    34    1
    41    34    35    1
    42    35    36   ar
    43    36    37    1
    44    36    38   ar
    45    38    39   ar
    46    39    40   ar
    47    40    41   ar
    48    41    42   ar
    49    42    43   ar
    50    43    44   ar
    51    44    45   ar
    52    32    33    1
    53    23    24   am
    54    24    25    2
    55    24    26    1
    56    26    27    1
    57    27    28    1
    58    27     1    1
    59    56    50    1
    60    27    22    1
    61    33    30    1
    62    45    35   ar
    63    45    40   ar
    64    57    58    1
    65    14    29    1
    66    37    46    1
@<TRIPOS>MOLECULE
*****
 61 66 0 0 0
SMALL
GASTEIGER

@<TRIPOS>ATOM
      1 C         140.7153  141.6228  155.5188 C.3     1  UNL1        0.2066
      2 O         140.4161  142.9694  156.1082 O.3     1  UNL1       -0.4483
      3 C         140.3740  143.9812  157.2147 C.2     1  UNL1        0.3235
      4 O         139.7775  145.1836  156.5451 O.2     1  UNL1       -0.2496
      5 C         140.5974  144.4578  158.6193 C.3     1  UNL1        0.1563
      6 C         140.1004  145.8724  158.5748 C.3     1  UNL1        0.0196
      7 C         141.0420  144.3050  160.0437 C.2     1  UNL1        0.1629
      8 O         140.7428  145.6515  160.6331 O.2     1  UNL1       -0.2954
      9 C         141.6198  143.5529  161.2058 C.3     1  UNL1        0.0877
     10 C         141.5777  144.5647  162.3124 C.3     1  UNL1        0.0104
     11 C         142.2163  142.3505  161.8755 C.3     1  UNL1        0.1490
     12 C         142.7134  140.9359  161.9201 C.3     1  UNL1        0.1141
     13 C         142.8507  141.6074  163.2543 C.3     1  UNL1        0.0318
     14 O         143.3108  140.0120  162.9395 O.3     1  UNL1       -0.3843
     15 C         143.0126  139.5894  161.3306 C.3     1  UNL1        0.0367
     16 C         143.0546  138.5776  160.2242 C.3     1  UNL1        0.0601
     17 C         143.6511  137.3752  160.8938 C.3     1  UNL1        0.0078
     18 C         142.8312  138.1009  158.8196 C.2     1  UNL1        0.1516
     19 O         143.3283  136.6864  158.8640 O.2     1  UNL1       -0.2960
     20 C         142.3866  138.2537  157.3951 C.3     1  UNL1        0.0794
     21 C         142.6858  136.9072  156.8058 C.3     1  UNL1        0.0096
     22 C         141.8089  139.0059  156.2330 C.3     1  UNL1        0.1254
     23 N         141.9047  137.9083  155.2151 N.am    1  UNL1       -0.2426
     24 C         141.3675  138.4323  153.9163 C.2     1  UNL1        0.4049
     25 O         141.2745  137.6689  152.6285 O.2     1  UNL1       -0.2262
     26 O         140.9396  139.8538  154.1316 O.3     1  UNL1       -0.4365
     27 C         141.2124  140.2083  155.5634 C.3     1  UNL1        0.1908
     28 C         140.6273  141.0139  154.4414 C.3     1  UNL1        0.0493
     29 H         143.3865  140.4736  163.7893 H       1  UNL1        0.2103
     30 C         142.4433  136.5288  155.4540 C.3     1  UNL1        0.1105
     31 C         141.8711  135.2412  155.9684 C.3     1  UNL1        0.0939
     32 N         143.2049  134.5780  155.7919 N.3     1  UNL1       -0.2659
     33 C         143.7771  135.8657  155.2775 C.3     1  UNL1        0.0939
     34 C         143.7434  133.1985  156.0309 C.3     1  UNL1        0.1024
     35 C         143.0531  132.0095  155.4310 C.ar    1  UNL1        0.0321
     36 C         142.4234  132.1139  154.0736 C.ar    1  UNL1        0.1501
     37 O         142.4839  133.4071  153.3161 O.3     1  UNL1       -0.5042
     38 C         141.7331  130.9249  153.4737 C.ar    1  UNL1        0.1368
     39 N         141.6726  129.6317  154.2313 N.ar    1  UNL1       -0.2219
     40 C         142.3023  129.5274  155.5886 C.ar    1  UNL1        0.1622
     41 N         142.2418  128.2341  156.3461 N.ar    1  UNL1       -0.2251
     42 C         142.8715  128.1298  157.7035 C.ar    1  UNL1        0.1006
     43 C         143.5618  129.3188  158.3034 C.ar    1  UNL1        0.0208
     44 C         143.6224  130.6120  157.5460 C.ar    1  UNL1        0.0045
     45 C         142.9926  130.7164  156.1885 C.ar    1  UNL1        0.0361
     46 H         142.9151  134.1498  153.6908 H       1  UNL1        0.2922
     47 C         138.8917  142.2808  153.7892 C.3     1  UNL1        0.0040
     48 C         140.2707  141.7757  154.0944 C.3     1  UNL1        0.0474
     49 O         142.4397  142.8271  163.2801 O.3     1  UNL1       -0.3283
     50 C         141.5921  142.2938  164.3968 C.3     1  UNL1        0.2643
     51 O         140.2628  141.6673  164.0961 O.3     1  UNL1       -0.3311
     52 C         139.4152  141.1340  165.2129 C.3     1  UNL1        0.1194
     53 C         138.0859  140.5075  164.9122 C.3     1  UNL1        0.0322
     54 C         139.8969  141.2272  166.6304 C.3     1  UNL1        0.0482
     55 C         141.2262  141.8537  166.9311 C.3     1  UNL1        0.0921
     56 C         142.0738  142.3870  165.8143 C.3     1  UNL1        0.1815
     57 O         143.4032  143.0135  166.1150 O.3     1  UNL1       -0.3783
     58 H         143.5609  142.9937  167.0719 H       1  UNL1        0.2106
     59 N         141.7079  141.9469  168.3486 N.3     1  UNL1       -0.2692
     60 C         141.0634  142.9131  169.2978 C.3     1  UNL1        0.0897
     61 C         142.8342  141.0738  168.8169 C.3     1  UNL1        0.0897
@<TRIPOS>BOND
     1    47    48    1
     2     1    48    1
     3     1     2    1
     4     2     3    1
     5     3     4    2
     6     3     5    1
     7     5     6    1
     8     5     7    1
     9     7     8    2
    10     7     9    1
    11     9    10    1
    12     9    11    1
    13    11    49    1
    14    50    49    1
    15    50    51    1
    16    51    52    1
    17    52    53    1
    18    52    54    1
    19    54    55    1
    20    55    59    1
    21    59    60    1
    22    59    61    1
    23    55    56    1
    24    56    57    1
    25    11    12    1
    26    12    13    1
    27    12    14    1
    28    12    15    1
    29    15    16    1
    30    16    17    1
    31    16    18    1
    32    18    19    2
    33    18    20    1
    34    20    21    1
    35    20    22    1
    36    22    23    1
    37    23    30    1
    38    30    31    1
    39    31    32    1
    40    32    34    1
    41    34    35    1
    42    35    36   ar
    43    36    37    1
    44    36    38   ar
    45    38    39   ar
    46    39    40   ar
    47    40    41   ar
    48    41    42   ar
    49    42    43   ar
    50    43    44   ar
    51    44    45   ar
    52    32    33    1
    53    23    24   am
    54    24    25    2
    55    24    26    1
    56    26    27    1
    57    27    28    1
    58    27     1    1
    59    56    50    1
    60    27    22    1
    61    33    30    1
    62    45    35   ar
    63    45    40   ar
    64    57    58    1
    65    14    29    1
    66    37    46    1
@<TRIPOS>MOLECULE
*****
 61 66 0 0 0
SMALL
GASTEIGER

@<TRIPOS>ATOM
      1 C         139.8935  142.7706  156.4056 C.3     1  UNL1        0.2066
      2 O         139.8254  143.9183  157.3690 O.3     1  UNL1       -0.4483
      3 C         140.0761  144.5962  158.6835 C.2     1  UNL1        0.3235
      4 O         139.4713  145.9536  158.4797 O.2     1  UNL1       -0.2496
      5 C         140.5959  144.6698  160.0885 C.3     1  UNL1        0.1563
      6 C         140.2225  146.0601  160.5101 C.3     1  UNL1        0.0196
      7 C         141.2819  144.1248  161.3061 C.2     1  UNL1        0.1629
      8 O         141.2138  145.2725  162.2694 O.2     1  UNL1       -0.2954
      9 C         141.9982  143.0689  162.0948 C.3     1  UNL1        0.0877
     10 C         142.2489  143.7468  163.4092 C.3     1  UNL1        0.0104
     11 C         142.6029  141.7115  162.2986 C.3     1  UNL1        0.1490
     12 C         142.9764  140.3212  161.8771 C.3     1  UNL1        0.1141
     13 C         143.4156  140.6041  163.2831 C.3     1  UNL1        0.0318
     14 O         143.6707  139.1376  162.4829 O.3     1  UNL1       -0.3843
     15 C         143.0444  139.1735  160.9136 C.3     1  UNL1        0.0367
     16 C         142.7938  138.4957  159.5993 C.3     1  UNL1        0.0601
     17 C         143.3985  137.1382  159.8031 C.3     1  UNL1        0.0078
     18 C         142.2740  138.4220  158.1942 C.2     1  UNL1        0.1516
     19 O         142.6473  137.0317  157.7725 O.2     1  UNL1       -0.2960
     20 C         141.5880  138.9670  156.9766 C.3     1  UNL1        0.0794
     21 C         141.6561  137.8193  156.0132 C.3     1  UNL1        0.0096
     22 C         140.8716  140.0228  156.1879 C.3     1  UNL1        0.1254
     23 N         140.6827  139.2368  154.9243 N.am    1  UNL1       -0.2426
     24 C         139.9612  140.1085  153.9396 C.2     1  UNL1        0.4049
     25 O         139.5660  139.7231  152.5449 O.2     1  UNL1       -0.2262
     26 O         139.7042  141.4332  154.5946 O.3     1  UNL1       -0.4365
     27 C         140.2669  141.3803  155.9841 C.3     1  UNL1        0.1908
     28 C         139.5555  142.4771  155.2485 C.3     1  UNL1        0.0493
     29 H         143.9419  139.3510  163.3894 H       1  UNL1        0.2103
     30 C         141.1357  137.8267  154.6872 C.3     1  UNL1        0.1105
     31 C         140.6625  136.4726  155.1259 C.3     1  UNL1        0.0939
     32 N         141.7764  135.8324  154.3518 N.3     1  UNL1       -0.2659
     33 C         142.2497  137.1865  153.9131 C.3     1  UNL1        0.0939
     34 C         142.2294  134.4222  154.1147 C.3     1  UNL1        0.1024
     35 C         142.8045  133.6193  155.2436 C.ar    1  UNL1        0.0321
     36 C         143.7837  134.2493  156.1894 C.ar    1  UNL1        0.1501
     37 O         144.1877  135.6822  156.0062 O.3     1  UNL1       -0.5042
     38 C         144.3588  133.4464  157.3183 C.ar    1  UNL1        0.1368
     39 N         143.9548  132.0135  157.5015 N.ar    1  UNL1       -0.2219
     40 C         142.9757  131.3835  156.5557 C.ar    1  UNL1        0.1622
     41 N         142.5717  129.9506  156.7390 N.ar    1  UNL1       -0.2251
     42 C         141.5926  129.3206  155.7933 C.ar    1  UNL1        0.1006
     43 C         141.0174  130.1236  154.6643 C.ar    1  UNL1        0.0208
     44 C         141.4214  131.5564  154.4811 C.ar    1  UNL1        0.0045
     45 C         142.4006  132.1865  155.4268 C.ar    1  UNL1        0.0361
     46 H         143.8284  136.1837  155.3009 H       1  UNL1        0.2922
     47 C         139.5397  144.6920  154.6930 C.3     1  UNL1        0.0040
     48 C         139.2075  143.3157  155.1881 C.3     1  UNL1        0.0474
     49 O         143.1228  141.7851  163.7037 O.3     1  UNL1       -0.3283
     50 C         142.7332  140.7370  164.7034 C.3     1  UNL1        0.2643
     51 O         143.7494  139.7434  165.1830 O.3     1  UNL1       -0.3311
     52 C         143.3598  138.6951  166.1828 C.3     1  UNL1        0.1194
     53 C         144.3761  137.7015  166.6624 C.3     1  UNL1        0.0322
     54 C         141.9540  138.6405  166.7029 C.3     1  UNL1        0.0482
     55 C         140.9377  139.6341  166.2234 C.3     1  UNL1        0.0921
     56 C         141.3273  140.6823  165.2236 C.3     1  UNL1        0.1815
     57 O         140.3110  141.6759  164.7440 O.3     1  UNL1       -0.3783
     58 H         139.4600  141.5019  165.1756 H       1  UNL1        0.2106
     59 N         139.5318  139.5795  166.7435 N.3     1  UNL1       -0.2692
     60 C         139.2309  140.0346  168.1407 C.3     1  UNL1        0.0897
     61 C         138.4269  139.0696  165.8664 C.3     1  UNL1        0.0897
@<TRIPOS>BOND
     1    47    48    1
     2     1    48    1
     3     1     2    1
     4     2     3    1
     5     3     4    2
     6     3     5    1
     7     5     6    1
     8     5     7    1
     9     7     8    2
    10     7     9    1
    11     9    10    1
    12     9    11    1
    13    11    49    1
    14    50    49    1
    15    50    51    1
    16    51    52    1
    17    52    53    1
    18    52    54    1
    19    54    55    1
    20    55    59    1
    21    59    60    1
    22    59    61    1
    23    55    56    1
    24    56    57    1
    25    11    12    1
    26    12    13    1
    27    12    14    1
    28    12    15    1
    29    15    16    1
    30    16    17    1
    31    16    18    1
    32    18    19    2
    33    18    20    1
    34    20    21    1
    35    20    22    1
    36    22    23    1
    37    23    30    1
    38    30    31    1
    39    31    32    1
    40    32    34    1
    41    34    35    1
    42    35    36   ar
    43    36    37    1
    44    36    38   ar
    45    38    39   ar
    46    39    40   ar
    47    40    41   ar
    48    41    42   ar
    49    42    43   ar
    50    43    44   ar
    51    44    45   ar
    52    32    33    1
    53    23    24   am
    54    24    25    2
    55    24    26    1
    56    26    27    1
    57    27    28    1
    58    27     1    1
    59    56    50    1
    60    27    22    1
    61    33    30    1
    62    45    35   ar
    63    45    40   ar
    64    57    58    1
    65    14    29    1
    66    37    46    1
@<TRIPOS>MOLECULE
*****
 61 66 0 0 0
SMALL
GASTEIGER

@<TRIPOS>ATOM
      1 C         138.7127  140.4091  153.4414 C.3     1  UNL1        0.2066
      2 O         138.2395  141.8243  153.5943 O.3     1  UNL1       -0.4483
      3 C         138.2030  143.1740  154.2477 C.2     1  UNL1        0.3235
      4 O         137.2055  143.9218  153.4136 O.2     1  UNL1       -0.2496
      5 C         138.6104  144.1908  155.2724 C.3     1  UNL1        0.1563
      6 C         137.7942  145.3912  154.8943 C.3     1  UNL1        0.0196
      7 C         139.3810  144.6735  156.4653 C.2     1  UNL1        0.1629
      8 O         138.9078  146.0887  156.6181 O.2     1  UNL1       -0.2954
      9 C         140.3623  144.5264  157.5903 C.3     1  UNL1        0.0877
     10 C         140.3258  145.8761  158.2437 C.3     1  UNL1        0.0104
     11 C         141.3598  143.7786  158.4244 C.3     1  UNL1        0.1490
     12 C         142.1760  142.5782  158.8026 C.3     1  UNL1        0.1141
     13 C         142.4402  143.7327  159.7231 C.3     1  UNL1        0.0318
     14 O         143.1852  142.2214  159.8533 O.3     1  UNL1       -0.3843
     15 C         142.6492  141.1630  158.6497 C.3     1  UNL1        0.0367
     16 C         142.6858  139.8134  157.9963 C.3     1  UNL1        0.0601
     17 C         143.6833  139.0656  158.8305 C.3     1  UNL1        0.0078
     18 C         142.2784  138.7965  156.9716 C.2     1  UNL1        0.1516
     19 O         143.0945  137.5961  157.3497 O.2     1  UNL1       -0.2960
     20 C         141.5077  138.3138  155.7787 C.3     1  UNL1        0.0794
     21 C         141.9809  136.8986  155.6259 C.3     1  UNL1        0.0096
     22 C         140.5265  138.4609  154.6537 C.3     1  UNL1        0.1254
     23 N         140.6538  137.0755  154.0929 N.am    1  UNL1       -0.2426
     24 C         139.7350  136.9671  152.9122 C.2     1  UNL1        0.4049
     25 O         139.5448  135.7534  152.0516 O.2     1  UNL1       -0.2262
     26 O         139.0398  138.2855  152.7433 O.3     1  UNL1       -0.4365
     27 C         139.5290  139.2087  153.8196 C.3     1  UNL1        0.1908
     28 C         138.5370  139.4193  152.7143 C.3     1  UNL1        0.0493
     29 H         143.3343  142.9860  160.4313 H       1  UNL1        0.2103
     30 C         141.5437  135.9893  154.6203 C.3     1  UNL1        0.1105
     31 C         143.0133  135.6961  154.5534 C.3     1  UNL1        0.0939
     32 N         142.8022  134.4531  155.3661 N.3     1  UNL1       -0.2659
     33 C         141.3327  134.7463  155.4330 C.3     1  UNL1        0.0939
     34 C         143.6923  133.3669  155.8935 C.3     1  UNL1        0.1024
     35 C         143.5447  131.9634  155.3852 C.ar    1  UNL1        0.0321
     36 C         143.0425  131.7189  153.9930 C.ar    1  UNL1        0.1501
     37 O         142.6879  132.8777  153.1093 O.3     1  UNL1       -0.5042
     38 C         142.8949  130.3154  153.4847 C.ar    1  UNL1        0.1368
     39 N         143.2496  129.1564  154.3685 N.ar    1  UNL1       -0.2219
     40 C         143.7517  129.4010  155.7606 C.ar    1  UNL1        0.1622
     41 N         144.1064  128.2420  156.6444 N.ar    1  UNL1       -0.2251
     42 C         144.6085  128.4866  158.0365 C.ar    1  UNL1        0.1006
     43 C         144.7561  129.8901  158.5448 C.ar    1  UNL1        0.0208
     44 C         144.4015  131.0490  157.6611 C.ar    1  UNL1        0.0045
     45 C         143.8993  130.8045  156.2689 C.ar    1  UNL1        0.0361
     46 H         142.7801  133.7545  153.4268 H       1  UNL1        0.2922
     47 C         136.4466  140.0394  152.2258 C.3     1  UNL1        0.0040
     48 C         137.9421  139.9264  152.2485 C.3     1  UNL1        0.0474
     49 O         141.7672  144.7955  159.4491 O.3     1  UNL1       -0.3283
     50 C         141.6839  144.4635  160.9095 C.3     1  UNL1        0.2643
     51 O         142.9149  144.5258  161.7642 O.3     1  UNL1       -0.3311
     52 C         142.8316  144.1938  163.2247 C.3     1  UNL1        0.1194
     53 C         144.0627  144.2560  164.0794 C.3     1  UNL1        0.0322
     54 C         141.5172  143.7997  163.8304 C.3     1  UNL1        0.0482
     55 C         140.2860  143.7374  162.9757 C.3     1  UNL1        0.0921
     56 C         140.3694  144.0694  161.5152 C.3     1  UNL1        0.1815
     57 O         139.1383  144.0071  160.6605 O.3     1  UNL1       -0.3783
     58 H         138.3809  143.7381  161.2035 H       1  UNL1        0.2106
     59 N         138.9716  143.3432  163.5814 N.3     1  UNL1       -0.2692
     60 C         138.5511  141.9035  163.5892 C.3     1  UNL1        0.0897
     61 C         138.0778  144.3889  164.1794 C.3     1  UNL1        0.0897
@<TRIPOS>BOND
     1    47    48    1
     2     1    48    1
     3     1     2    1
     4     2     3    1
     5     3     4    2
     6     3     5    1
     7     5     6    1
     8     5     7    1
     9     7     8    2
    10     7     9    1
    11     9    10    1
    12     9    11    1
    13    11    49    1
    14    50    49    1
    15    50    51    1
    16    51    52    1
    17    52    53    1
    18    52    54    1
    19    54    55    1
    20    55    59    1
    21    59    60    1
    22    59    61    1
    23    55    56    1
    24    56    57    1
    25    11    12    1
    26    12    13    1
    27    12    14    1
    28    12    15    1
    29    15    16    1
    30    16    17    1
    31    16    18    1
    32    18    19    2
    33    18    20    1
    34    20    21    1
    35    20    22    1
    36    22    23    1
    37    23    30    1
    38    30    31    1
    39    31    32    1
    40    32    34    1
    41    34    35    1
    42    35    36   ar
    43    36    37    1
    44    36    38   ar
    45    38    39   ar
    46    39    40   ar
    47    40    41   ar
    48    41    42   ar
    49    42    43   ar
    50    43    44   ar
    51    44    45   ar
    52    32    33    1
    53    23    24   am
    54    24    25    2
    55    24    26    1
    56    26    27    1
    57    27    28    1
    58    27     1    1
    59    56    50    1
    60    27    22    1
    61    33    30    1
    62    45    35   ar
    63    45    40   ar
    64    57    58    1
    65    14    29    1
    66    37    46    1
@<TRIPOS>MOLECULE
*****
 61 66 0 0 0
SMALL
GASTEIGER

@<TRIPOS>ATOM
      1 C         141.4358  142.2546  155.1634 C.3     1  UNL1        0.2066
      2 O         140.9582  143.5791  155.6809 O.3     1  UNL1       -0.4483
      3 C         140.5332  144.5372  156.7539 C.2     1  UNL1        0.3235
      4 O         140.2260  145.7868  155.9830 O.2     1  UNL1       -0.2496
      5 C         140.2449  144.9392  158.1699 C.3     1  UNL1        0.1563
      6 C         139.8094  146.3677  158.0293 C.3     1  UNL1        0.0196
      7 C         140.1503  144.7055  159.6486 C.2     1  UNL1        0.1629
      8 O         139.6728  146.0300  160.1660 O.2     1  UNL1       -0.2954
      9 C         140.2683  143.8823  160.8970 C.3     1  UNL1        0.0877
     10 C         139.8432  144.8405  161.9700 C.3     1  UNL1        0.0104
     11 C         140.5754  142.6327  161.6678 C.3     1  UNL1        0.1490
     12 C         141.0108  141.2042  161.8085 C.3     1  UNL1        0.1141
     13 C         140.6689  141.8065  163.1390 C.3     1  UNL1        0.0318
     14 O         141.1965  140.2158  162.9213 O.3     1  UNL1       -0.3843
     15 C         141.4884  139.8797  161.2911 C.3     1  UNL1        0.0367
     16 C         141.9134  138.9216  160.2181 C.3     1  UNL1        0.0601
     17 C         142.2205  137.6720  160.9890 C.3     1  UNL1        0.0078
     18 C         142.2018  138.5196  158.8021 C.2     1  UNL1        0.1516
     19 O         142.6372  137.0911  158.9426 O.2     1  UNL1       -0.2960
     20 C         142.2963  138.7533  157.3234 C.3     1  UNL1        0.0794
     21 C         142.7738  137.4289  156.8060 C.3     1  UNL1        0.0096
     22 C         142.1783  139.5765  156.0750 C.3     1  UNL1        0.1254
     23 N         142.6212  138.5270  155.0991 N.am    1  UNL1       -0.2426
     24 C         142.5878  139.1278  153.7251 C.2     1  UNL1        0.4049
     25 O         142.9537  138.4303  152.4486 O.2     1  UNL1       -0.2262
     26 O         142.1243  140.5488  153.8519 O.3     1  UNL1       -0.4365
     27 C         141.8712  140.8261  155.3041 C.3     1  UNL1        0.1908
     28 C         141.7326  141.7009  154.0935 C.3     1  UNL1        0.0493
     29 H         140.9682  140.6337  163.7664 H       1  UNL1        0.2103
     30 C         143.0264  137.1230  155.4378 C.3     1  UNL1        0.1105
     31 C         144.3082  136.3460  155.3812 C.3     1  UNL1        0.0939
     32 N         143.5993  135.1375  155.9168 N.3     1  UNL1       -0.2659
     33 C         142.3175  135.9144  155.9734 C.3     1  UNL1        0.0939
     34 C         144.0046  133.7335  156.2554 C.3     1  UNL1        0.1024
     35 C         143.3013  132.5743  155.6138 C.ar    1  UNL1        0.0321
     36 C         142.6065  132.7545  154.2966 C.ar    1  UNL1        0.1501
     37 O         142.6150  134.0937  153.6212 O.3     1  UNL1       -0.5042
     38 C         141.9032  131.5953  153.6550 C.ar    1  UNL1        0.1368
     39 N         141.8948  130.2560  154.3304 N.ar    1  UNL1       -0.2219
     40 C         142.5896  130.0759  155.6476 C.ar    1  UNL1        0.1622
     41 N         142.5811  128.7366  156.3230 N.ar    1  UNL1       -0.2251
     42 C         143.2759  128.5564  157.6401 C.ar    1  UNL1        0.1006
     43 C         143.9792  129.7157  158.2818 C.ar    1  UNL1        0.0208
     44 C         143.9877  131.0549  157.6064 C.ar    1  UNL1        0.0045
     45 C         143.2928  131.2351  156.2892 C.ar    1  UNL1        0.0361
     46 H         143.0543  134.8178  154.0221 H       1  UNL1        0.2922
     47 C         142.3301  143.6425  153.1576 C.3     1  UNL1        0.0040
     48 C         141.5303  142.4883  153.6848 C.3     1  UNL1        0.0474
     49 O         140.2870  143.0347  163.0839 O.3     1  UNL1       -0.3283
     50 C         141.3000  142.7734  164.1588 C.3     1  UNL1        0.2643
     51 O         142.7640  142.8051  163.8335 O.3     1  UNL1       -0.3311
     52 C         143.7771  142.5438  164.9084 C.3     1  UNL1        0.1194
     53 C         145.2410  142.5755  164.5831 C.3     1  UNL1        0.0322
     54 C         143.3262  142.2508  166.3087 C.3     1  UNL1        0.0482
     55 C         141.8622  142.2191  166.6341 C.3     1  UNL1        0.0921
     56 C         140.8491  142.4804  165.5591 C.3     1  UNL1        0.1815
     57 O         139.3852  142.4487  165.8845 O.3     1  UNL1       -0.3783
     58 H         139.2675  142.2467  166.8259 H       1  UNL1        0.2106
     59 N         141.4113  141.9260  168.0344 N.3     1  UNL1       -0.2692
     60 C         141.4123  140.5149  168.5428 C.3     1  UNL1        0.0897
     61 C         140.9594  143.0443  168.9262 C.3     1  UNL1        0.0897
@<TRIPOS>BOND
     1    47    48    1
     2     1    48    1
     3     1     2    1
     4     2     3    1
     5     3     4    2
     6     3     5    1
     7     5     6    1
     8     5     7    1
     9     7     8    2
    10     7     9    1
    11     9    10    1
    12     9    11    1
    13    11    49    1
    14    50    49    1
    15    50    51    1
    16    51    52    1
    17    52    53    1
    18    52    54    1
    19    54    55    1
    20    55    59    1
    21    59    60    1
    22    59    61    1
    23    55    56    1
    24    56    57    1
    25    11    12    1
    26    12    13    1
    27    12    14    1
    28    12    15    1
    29    15    16    1
    30    16    17    1
    31    16    18    1
    32    18    19    2
    33    18    20    1
    34    20    21    1
    35    20    22    1
    36    22    23    1
    37    23    30    1
    38    30    31    1
    39    31    32    1
    40    32    34    1
    41    34    35    1
    42    35    36   ar
    43    36    37    1
    44    36    38   ar
    45    38    39   ar
    46    39    40   ar
    47    40    41   ar
    48    41    42   ar
    49    42    43   ar
    50    43    44   ar
    51    44    45   ar
    52    32    33    1
    53    23    24   am
    54    24    25    2
    55    24    26    1
    56    26    27    1
    57    27    28    1
    58    27     1    1
    59    56    50    1
    60    27    22    1
    61    33    30    1
    62    45    35   ar
    63    45    40   ar
    64    57    58    1
    65    14    29    1
    66    37    46    1
@<TRIPOS>MOLECULE
*****
 61 66 0 0 0
SMALL
GASTEIGER

@<TRIPOS>ATOM
      1 C         141.1956  144.0084  158.1398 C.3     1  UNL1        0.2066
      2 O         140.6176  144.8958  159.2022 O.3     1  UNL1       -0.4483
      3 C         140.0914  145.1944  160.5747 C.2     1  UNL1        0.3235
      4 O         139.7410  146.6503  160.4884 O.2     1  UNL1       -0.2496
      5 C         139.7212  144.8450  161.9856 C.3     1  UNL1        0.1563
      6 C         139.2060  146.1454  162.5273 C.3     1  UNL1        0.0196
      7 C         139.5802  143.9169  163.1556 C.2     1  UNL1        0.1629
      8 O         139.0023  144.8042  164.2179 O.2     1  UNL1       -0.2954
      9 C         139.6965  142.5938  163.8527 C.3     1  UNL1        0.0877
     10 C         139.1703  142.8924  165.2253 C.3     1  UNL1        0.0104
     11 C         140.0470  141.1379  163.9390 C.3     1  UNL1        0.1490
     12 C         140.5622  139.8374  163.3974 C.3     1  UNL1        0.1141
     13 C         140.1299  139.7027  164.8274 C.3     1  UNL1        0.0318
     14 O         140.7616  138.4385  163.9006 O.3     1  UNL1       -0.3843
     15 C         141.1402  138.9500  162.3351 C.3     1  UNL1        0.0367
     16 C         141.6664  138.6514  160.9626 C.3     1  UNL1        0.0601
     17 C         142.0169  137.1955  161.0489 C.3     1  UNL1        0.0078
     18 C         142.0367  139.0008  159.5516 C.2     1  UNL1        0.1516
     19 O         142.5519  137.7004  159.0099 O.2     1  UNL1       -0.2960
     20 C         142.1776  139.9289  158.3816 C.3     1  UNL1        0.0794
     21 C         142.7556  139.0415  157.3194 C.3     1  UNL1        0.0096
     22 C         142.0613  141.2520  157.6845 C.3     1  UNL1        0.1254
     23 N         142.6069  140.8269  156.3534 N.am    1  UNL1       -0.2426
     24 C         142.5936  142.0201  155.4445 C.2     1  UNL1        0.4049
     25 O         143.0534  142.0461  154.0169 O.2     1  UNL1       -0.2262
     26 O         142.0398  143.1826  156.2138 O.3     1  UNL1       -0.4365
     27 C         141.7109  142.7079  157.5982 C.3     1  UNL1        0.1908
     28 C         141.5693  144.0569  156.9577 C.3     1  UNL1        0.0493
     29 H         140.4738  138.3834  164.8253 H       1  UNL1        0.2103
     30 C         143.0823  139.4503  155.9944 C.3     1  UNL1        0.1105
     31 C         144.3963  138.8559  155.5820 C.3     1  UNL1        0.0939
     32 N         143.7546  137.5034  155.4866 N.3     1  UNL1       -0.2659
     33 C         142.4406  138.0978  155.8991 C.3     1  UNL1        0.0939
     34 C         144.2301  136.1268  155.1276 C.3     1  UNL1        0.1024
     35 C         143.2381  135.0605  154.7686 C.ar    1  UNL1        0.0321
     36 C         142.2754  135.2812  153.6395 C.ar    1  UNL1        0.1501
     37 O         142.3048  136.5680  152.8696 O.3     1  UNL1       -0.5042
     38 C         141.2834  134.2148  153.2806 C.ar    1  UNL1        0.1368
     39 N         141.2541  132.9279  154.0506 N.ar    1  UNL1       -0.2219
     40 C         142.2167  132.7073  155.1796 C.ar    1  UNL1        0.1622
     41 N         142.1872  131.4203  155.9496 N.ar    1  UNL1       -0.2251
     42 C         143.1499  131.1996  157.0786 C.ar    1  UNL1        0.1006
     43 C         144.1419  132.2660  157.4376 C.ar    1  UNL1        0.0208
     44 C         144.1713  133.5529  156.6676 C.ar    1  UNL1        0.0045
     45 C         143.2087  133.7736  155.5386 C.ar    1  UNL1        0.0361
     46 H         142.9245  137.2341  153.0938 H       1  UNL1        0.2922
     47 C         140.1397  145.6775  156.4519 C.3     1  UNL1        0.0040
     48 C         141.3366  144.9365  156.9699 C.3     1  UNL1        0.0474
     49 O         139.6768  140.7885  165.3500 O.3     1  UNL1       -0.3283
     50 C         140.7251  140.2864  166.2980 C.3     1  UNL1        0.2643
     51 O         141.9330  139.5708  165.7701 O.3     1  UNL1       -0.3311
     52 C         142.9814  139.0687  166.7181 C.3     1  UNL1        0.1194
     53 C         144.1893  138.3531  166.1901 C.3     1  UNL1        0.0322
     54 C         142.8218  139.2821  168.1943 C.3     1  UNL1        0.0482
     55 C         141.6138  139.9976  168.7224 C.3     1  UNL1        0.0921
     56 C         140.5655  140.4998  167.7742 C.3     1  UNL1        0.1815
     57 O         139.3575  141.2153  168.3023 O.3     1  UNL1       -0.3783
     58 H         139.4099  141.2679  169.2694 H       1  UNL1        0.2106
     59 N         141.4542  140.2111  170.1985 N.3     1  UNL1       -0.2692
     60 C         142.5703  140.8217  170.9930 C.3     1  UNL1        0.0897
     61 C         140.1784  139.8138  170.8800 C.3     1  UNL1        0.0897
@<TRIPOS>BOND
     1    47    48    1
     2     1    48    1
     3     1     2    1
     4     2     3    1
     5     3     4    2
     6     3     5    1
     7     5     6    1
     8     5     7    1
     9     7     8    2
    10     7     9    1
    11     9    10    1
    12     9    11    1
    13    11    49    1
    14    50    49    1
    15    50    51    1
    16    51    52    1
    17    52    53    1
    18    52    54    1
    19    54    55    1
    20    55    59    1
    21    59    60    1
    22    59    61    1
    23    55    56    1
    24    56    57    1
    25    11    12    1
    26    12    13    1
    27    12    14    1
    28    12    15    1
    29    15    16    1
    30    16    17    1
    31    16    18    1
    32    18    19    2
    33    18    20    1
    34    20    21    1
    35    20    22    1
    36    22    23    1
    37    23    30    1
    38    30    31    1
    39    31    32    1
    40    32    34    1
    41    34    35    1
    42    35    36   ar
    43    36    37    1
    44    36    38   ar
    45    38    39   ar
    46    39    40   ar
    47    40    41   ar
    48    41    42   ar
    49    42    43   ar
    50    43    44   ar
    51    44    45   ar
    52    32    33    1
    53    23    24   am
    54    24    25    2
    55    24    26    1
    56    26    27    1
    57    27    28    1
    58    27     1    1
    59    56    50    1
    60    27    22    1
    61    33    30    1
    62    45    35   ar
    63    45    40   ar
    64    57    58    1
    65    14    29    1
    66    37    46    1
@<TRIPOS>MOLECULE
*****
 61 66 0 0 0
SMALL
GASTEIGER

@<TRIPOS>ATOM
      1 C         142.4425  143.0242  156.1528 C.3     1  UNL1        0.2066
      2 O         143.6253  143.0012  157.0751 O.3     1  UNL1       -0.4483
      3 C         144.3287  142.6924  158.3634 C.2     1  UNL1        0.3235
      4 O         145.7190  143.1973  158.1140 O.2     1  UNL1       -0.2496
      5 C         144.4134  142.1589  159.7627 C.3     1  UNL1        0.1563
      6 C         145.8413  142.4263  160.1361 C.3     1  UNL1        0.0196
      7 C         143.8626  141.5063  160.9959 C.2     1  UNL1        0.1629
      8 O         145.0454  141.4833  161.9180 O.2     1  UNL1       -0.2954
      9 C         142.7854  140.8639  161.8187 C.3     1  UNL1        0.0877
     10 C         143.4888  140.5551  163.1070 C.3     1  UNL1        0.0104
     11 C         141.3951  140.3590  162.0681 C.3     1  UNL1        0.1490
     12 C         139.9671  140.0915  161.6947 C.3     1  UNL1        0.1141
     13 C         140.2663  139.6230  163.0879 C.3     1  UNL1        0.0318
     14 O         138.7578  139.4817  162.3393 O.3     1  UNL1       -0.3843
     15 C         138.7843  140.1145  160.7725 C.3     1  UNL1        0.0367
     16 C         138.0809  140.4233  159.4843 C.3     1  UNL1        0.0601
     17 C         136.6906  139.9184  159.7337 C.3     1  UNL1        0.0078
     18 C         137.9962  140.9569  158.0849 C.2     1  UNL1        0.1516
     19 O         136.5683  140.6895  157.7115 O.2     1  UNL1       -0.2960
     20 C         138.5470  141.6095  156.8517 C.3     1  UNL1        0.0794
     21 C         137.3642  141.6324  155.9296 C.3     1  UNL1        0.0096
     22 C         139.6242  142.2519  156.0289 C.3     1  UNL1        0.1254
     23 N         138.8102  142.5067  154.7951 N.am    1  UNL1       -0.2426
     24 C         139.6974  143.1692  153.7831 C.2     1  UNL1        0.4049
     25 O         139.2932  143.6012  152.4047 O.2     1  UNL1       -0.2262
     26 O         141.0597  143.3237  154.3915 O.3     1  UNL1       -0.4365
     27 C         141.0145  142.7568  155.7795 C.3     1  UNL1        0.1908
     28 C         142.1340  143.3909  155.0084 C.3     1  UNL1        0.0493
     29 H         138.9824  139.1893  163.2365 H       1  UNL1        0.2103
     30 C         137.3631  142.1600  154.6063 C.3     1  UNL1        0.1105
     31 C         136.6086  141.1860  153.7508 C.3     1  UNL1        0.0939
     32 N         135.3166  141.6697  154.3394 N.3     1  UNL1       -0.2659
     33 C         136.0710  142.6437  155.1950 C.3     1  UNL1        0.0939
     34 C         133.8694  141.3229  154.1507 C.3     1  UNL1        0.1024
     35 C         133.1341  140.5664  155.2170 C.ar    1  UNL1        0.0321
     36 C         133.8346  139.4889  155.9905 C.ar    1  UNL1        0.1501
     37 O         135.2702  139.1679  155.6978 O.3     1  UNL1       -0.5042
     38 C         133.0992  138.7324  157.0568 C.ar    1  UNL1        0.1368
     39 N         131.6635  139.0534  157.3496 N.ar    1  UNL1       -0.2219
     40 C         130.9631  140.1309  156.5760 C.ar    1  UNL1        0.1622
     41 N         129.5274  140.4519  156.8688 N.ar    1  UNL1       -0.2251
     42 C         128.8270  141.5294  156.0952 C.ar    1  UNL1        0.1006
     43 C         129.5624  142.2860  155.0289 C.ar    1  UNL1        0.0208
     44 C         130.9980  141.9650  154.7361 C.ar    1  UNL1        0.0045
     45 C         131.6985  140.8874  155.5097 C.ar    1  UNL1        0.0361
     46 H         135.7295  139.6405  155.0317 H       1  UNL1        0.2922
     47 C         144.2992  143.2135  154.3455 C.3     1  UNL1        0.0040
     48 C         142.9933  143.6768  154.9197 C.3     1  UNL1        0.0474
     49 O         141.4798  139.8254  163.4674 O.3     1  UNL1       -0.3283
     50 C         141.1103  140.7013  164.6277 C.3     1  UNL1        0.2643
     51 O         140.3915  141.9963  164.3908 O.3     1  UNL1       -0.3311
     52 C         140.0220  142.8723  165.5511 C.3     1  UNL1        0.1194
     53 C         139.3032  144.1673  165.3142 C.3     1  UNL1        0.0322
     54 C         140.3713  142.4531  166.9483 C.3     1  UNL1        0.0482
     55 C         141.0901  141.1580  167.1853 C.3     1  UNL1        0.0921
     56 C         141.4596  140.2821  166.0249 C.3     1  UNL1        0.1815
     57 O         142.1784  138.9870  166.2619 O.3     1  UNL1       -0.3783
     58 H         142.3263  138.8687  167.2132 H       1  UNL1        0.2106
     59 N         141.4395  140.7389  168.5825 N.3     1  UNL1       -0.2692
     60 C         142.7966  141.0484  169.1412 C.3     1  UNL1        0.0897
     61 C         140.4315  140.0102  169.4210 C.3     1  UNL1        0.0897
@<TRIPOS>BOND
     1    47    48    1
     2     1    48    1
     3     1     2    1
     4     2     3    1
     5     3     4    2
     6     3     5    1
     7     5     6    1
     8     5     7    1
     9     7     8    2
    10     7     9    1
    11     9    10    1
    12     9    11    1
    13    11    49    1
    14    50    49    1
    15    50    51    1
    16    51    52    1
    17    52    53    1
    18    52    54    1
    19    54    55    1
    20    55    59    1
    21    59    60    1
    22    59    61    1
    23    55    56    1
    24    56    57    1
    25    11    12    1
    26    12    13    1
    27    12    14    1
    28    12    15    1
    29    15    16    1
    30    16    17    1
    31    16    18    1
    32    18    19    2
    33    18    20    1
    34    20    21    1
    35    20    22    1
    36    22    23    1
    37    23    30    1
    38    30    31    1
    39    31    32    1
    40    32    34    1
    41    34    35    1
    42    35    36   ar
    43    36    37    1
    44    36    38   ar
    45    38    39   ar
    46    39    40   ar
    47    40    41   ar
    48    41    42   ar
    49    42    43   ar
    50    43    44   ar
    51    44    45   ar
    52    32    33    1
    53    23    24   am
    54    24    25    2
    55    24    26    1
    56    26    27    1
    57    27    28    1
    58    27     1    1
    59    56    50    1
    60    27    22    1
    61    33    30    1
    62    45    35   ar
    63    45    40   ar
    64    57    58    1
    65    14    29    1
    66    37    46    1
