@<TRIPOS>MOLECULE
*****
 28 31 0 0 0
SMALL
GASTEIGER

@<TRIPOS>ATOM
      1 O         138.7168  139.5432  162.6355 O.2     1  UNL1       -0.2522
      2 C         140.0960  138.9560  162.5797 C.2     1  UNL1        0.3078
      3 N         140.8593  138.7126  163.8478 N.am    1  UNL1       -0.2681
      4 N         140.7118  138.6123  161.2558 N.am    1  UNL1       -0.2611
      5 C         139.9484  138.8557  159.9878 C.3     1  UNL1        0.1123
      6 C         140.5643  138.5120  158.6640 C.3     1  UNL1        0.0940
      7 N         141.9435  137.9248  158.6082 N.3     1  UNL1       -0.2697
      8 C         142.7068  137.6814  159.8762 C.3     1  UNL1        0.0940
      9 C         142.0910  138.0252  161.2000 C.3     1  UNL1        0.1123
     10 H         141.7645  138.3273  163.8112 H       1  UNL1        0.1564
     11 C         140.2435  139.0563  165.1717 C.ar    1  UNL1        0.0526
     12 C         140.8966  140.0720  166.0616 C.ar    1  UNL1        0.0171
     13 C         140.2807  140.4157  167.3854 C.ar    1  UNL1        0.0318
     14 C         139.0118  139.7437  167.8194 C.ar    1  UNL1        0.1507
     15 F         138.3960  140.0874  169.1433 F       1  UNL1       -0.2033
     16 C         138.3588  138.7280  166.9295 C.ar    1  UNL1        0.0863
     17 CL        137.0899  138.0560  167.3635 Cl      1  UNL1       -0.0799
     18 C         138.9746  138.3843  165.6057 C.ar    1  UNL1        0.0284
     19 C         142.5593  137.5811  157.2843 C.3     1  UNL1        0.0735
     20 C         142.4570  136.1833  156.7498 C.3     1  UNL1        0.0320
     21 C         141.4390  135.8551  155.6981 C.3     1  UNL1        0.0042
     22 C         141.3367  134.4574  155.1636 C.3     1  UNL1        0.0174
     23 C         142.2523  133.3877  155.6809 C.3     1  UNL1        0.0720
     24 N         143.2703  133.7159  156.7326 N.3     1  UNL1       -0.2739
     25 C         143.3726  135.1138  157.2670 C.3     1  UNL1        0.0734
     26 C         144.1859  132.6463  157.2498 C.3     1  UNL1        0.0576
     27 C         144.5327  131.1949  157.4017 C.3     1  UNL1        0.0173
     28 C         145.4251  132.2452  157.9937 C.3     1  UNL1        0.0173
@<TRIPOS>BOND
     1     1     2    2
     2     2     3   am
     3     3    11    1
     4    11    12   ar
     5    12    13   ar
     6    13    14   ar
     7    14    15    1
     8    14    16   ar
     9    16    17    1
    10    16    18   ar
    11     2     4   am
    12     4     5    1
    13     5     6    1
    14     6     7    1
    15     7    19    1
    16    20    19    1
    17    20    21    1
    18    21    22    1
    19    22    23    1
    20    23    24    1
    21    24    26    1
    22    26    27    1
    23    27    28    1
    24    24    25    1
    25     7     8    1
    26     8     9    1
    27    18    11   ar
    28     9     4    1
    29    25    20    1
    30    28    26    1
    31     3    10    1
@<TRIPOS>MOLECULE
*****
 28 31 0 0 0
SMALL
GASTEIGER

@<TRIPOS>ATOM
      1 O         142.0263  138.1385  164.1358 O.2     1  UNL1       -0.2522
      2 C         141.0411  138.5561  163.0846 C.2     1  UNL1        0.3078
      3 N         139.7295  139.1636  163.4851 N.am    1  UNL1       -0.2681
      4 N         141.3677  138.3663  161.6329 N.am    1  UNL1       -0.2611
      5 C         142.6793  137.7588  161.2324 C.3     1  UNL1        0.1123
      6 C         143.0058  137.5689  159.7807 C.3     1  UNL1        0.0940
      7 N         142.0206  137.9866  158.7296 N.3     1  UNL1       -0.2697
      8 C         140.7089  138.5941  159.1301 C.3     1  UNL1        0.0940
      9 C         140.3825  138.7840  160.5817 C.3     1  UNL1        0.1123
     10 H         139.0829  139.4378  162.7952 H       1  UNL1        0.1564
     11 C         139.4030  139.3535  164.9368 C.ar    1  UNL1        0.0526
     12 C         138.3661  138.4897  165.5915 C.ar    1  UNL1        0.0171
     13 C         138.0396  138.6796  167.0432 C.ar    1  UNL1        0.0318
     14 C         138.7500  139.7333  167.8401 C.ar    1  UNL1        0.1507
     15 F         138.4235  139.9231  169.2918 F       1  UNL1       -0.2033
     16 C         139.7869  140.5971  167.1854 C.ar    1  UNL1        0.0863
     17 CL        140.4972  141.6508  167.9823 Cl      1  UNL1       -0.0799
     18 C         140.1133  140.4072  165.7337 C.ar    1  UNL1        0.0284
     19 C         142.3471  137.7968  157.2779 C.3     1  UNL1        0.0735
     20 C         142.2673  136.4307  156.6636 C.3     1  UNL1        0.0320
     21 C         141.1969  136.1212  155.6593 C.3     1  UNL1        0.0042
     22 C         141.1171  134.7551  155.0451 C.3     1  UNL1        0.0174
     23 C         142.1077  133.6984  155.4351 C.3     1  UNL1        0.0720
     24 N         143.1781  134.0078  156.4393 N.3     1  UNL1       -0.2739
     25 C         143.2579  135.3740  157.0536 C.3     1  UNL1        0.0734
     26 C         144.1687  132.9511  156.8293 C.3     1  UNL1        0.0576
     27 C         144.9390  131.7072  156.4988 C.3     1  UNL1        0.0173
     28 C         145.1142  132.3649  157.8355 C.3     1  UNL1        0.0173
@<TRIPOS>BOND
     1     1     2    2
     2     2     3   am
     3     3    11    1
     4    11    12   ar
     5    12    13   ar
     6    13    14   ar
     7    14    15    1
     8    14    16   ar
     9    16    17    1
    10    16    18   ar
    11     2     4   am
    12     4     5    1
    13     5     6    1
    14     6     7    1
    15     7    19    1
    16    20    19    1
    17    20    21    1
    18    21    22    1
    19    22    23    1
    20    23    24    1
    21    24    26    1
    22    26    27    1
    23    27    28    1
    24    24    25    1
    25     7     8    1
    26     8     9    1
    27    18    11   ar
    28     9     4    1
    29    25    20    1
    30    28    26    1
    31     3    10    1
@<TRIPOS>MOLECULE
*****
 28 31 0 0 0
SMALL
GASTEIGER

@<TRIPOS>ATOM
      1 O         141.6549  140.0649  160.4151 O.2     1  UNL1       -0.2522
      2 C         140.6605  139.3675  159.5349 C.2     1  UNL1        0.3078
      3 N         139.2000  139.4082  159.8745 N.am    1  UNL1       -0.2681
      4 N         141.1266  138.6293  158.3151 N.am    1  UNL1       -0.2611
      5 C         142.5871  138.5886  157.9756 C.3     1  UNL1        0.1123
      6 C         143.0531  137.8504  156.7558 C.3     1  UNL1        0.0940
      7 N         142.0587  137.1530  155.8756 N.3     1  UNL1       -0.2697
      8 C         140.5983  137.1937  156.2151 C.3     1  UNL1        0.0940
      9 C         140.1322  137.9319  157.4349 C.3     1  UNL1        0.1123
     10 H         138.5474  138.9505  159.2968 H       1  UNL1        0.1564
     11 C         138.7339  140.1464  161.0943 C.ar    1  UNL1        0.0526
     12 C         138.2868  141.5738  160.9820 C.ar    1  UNL1        0.0171
     13 C         137.8207  142.3119  162.2017 C.ar    1  UNL1        0.0318
     14 C         137.8017  141.6226  163.5339 C.ar    1  UNL1        0.1507
     15 F         137.3356  142.3608  164.7537 F       1  UNL1       -0.2033
     16 C         138.2488  140.1952  163.6462 C.ar    1  UNL1        0.0863
     17 CL        138.2298  139.5060  164.9783 Cl      1  UNL1       -0.0799
     18 C         138.7149  139.4571  162.4264 C.ar    1  UNL1        0.0284
     19 C         142.5249  136.4148  154.6558 C.3     1  UNL1        0.0735
     20 C         142.7298  134.9299  154.7104 C.3     1  UNL1        0.0320
     21 C         142.1494  134.0528  153.6409 C.3     1  UNL1        0.0042
     22 C         142.3544  132.5679  153.6955 C.3     1  UNL1        0.0174
     23 C         143.1398  131.9600  154.8197 C.3     1  UNL1        0.0720
     24 N         143.7202  132.8371  155.8892 N.3     1  UNL1       -0.2739
     25 C         143.5152  134.3221  155.8345 C.3     1  UNL1        0.0734
     26 C         144.5055  132.2293  157.0133 C.3     1  UNL1        0.0576
     27 C         144.8461  131.0448  157.8683 C.3     1  UNL1        0.0173
     28 C         145.5253  132.3610  158.1055 C.3     1  UNL1        0.0173
@<TRIPOS>BOND
     1     1     2    2
     2     2     3   am
     3     3    11    1
     4    11    12   ar
     5    12    13   ar
     6    13    14   ar
     7    14    15    1
     8    14    16   ar
     9    16    17    1
    10    16    18   ar
    11     2     4   am
    12     4     5    1
    13     5     6    1
    14     6     7    1
    15     7    19    1
    16    20    19    1
    17    20    21    1
    18    21    22    1
    19    22    23    1
    20    23    24    1
    21    24    26    1
    22    26    27    1
    23    27    28    1
    24    24    25    1
    25     7     8    1
    26     8     9    1
    27    18    11   ar
    28     9     4    1
    29    25    20    1
    30    28    26    1
    31     3    10    1
@<TRIPOS>MOLECULE
*****
 28 31 0 0 0
SMALL
GASTEIGER

@<TRIPOS>ATOM
      1 O         138.9205  144.1262  165.3716 O.2     1  UNL1       -0.2522
      2 C         139.9725  143.4378  164.5534 C.2     1  UNL1        0.3078
      3 N         140.6885  142.2411  165.1057 N.am    1  UNL1       -0.2681
      4 N         140.3084  143.9463  163.1827 N.am    1  UNL1       -0.2611
      5 C         139.5924  145.1431  162.6304 C.3     1  UNL1        0.1123
      6 C         139.9284  145.6515  161.2598 C.3     1  UNL1        0.0940
      7 N         140.9803  144.9632  160.4415 N.3     1  UNL1       -0.2697
      8 C         141.6963  143.7664  160.9938 C.3     1  UNL1        0.0940
      9 C         141.3604  143.2580  162.3644 C.3     1  UNL1        0.1123
     10 H         141.3789  141.7894  164.5686 H       1  UNL1        0.1564
     11 C         140.3526  141.7326  166.4764 C.ar    1  UNL1        0.0526
     12 C         139.6452  140.4197  166.6367 C.ar    1  UNL1        0.0171
     13 C         139.3093  139.9113  168.0073 C.ar    1  UNL1        0.0318
     14 C         139.6808  140.7158  169.2176 C.ar    1  UNL1        0.1507
     15 F         139.3448  140.2073  170.5883 F       1  UNL1       -0.2033
     16 C         140.3882  142.0287  169.0572 C.ar    1  UNL1        0.0863
     17 CL        140.7597  142.8332  170.2675 Cl      1  UNL1       -0.0799
     18 C         140.7241  142.5371  167.6866 C.ar    1  UNL1        0.0284
     19 C         141.3163  145.4717  159.0708 C.3     1  UNL1        0.0735
     20 C         140.3800  145.2185  157.9266 C.3     1  UNL1        0.0320
     21 C         140.1571  146.2804  156.8909 C.3     1  UNL1        0.0042
     22 C         139.2207  146.0273  155.7467 C.3     1  UNL1        0.0174
     23 C         138.5073  144.7122  155.6382 C.3     1  UNL1        0.0720
     24 N         138.7301  143.6504  156.6740 N.3     1  UNL1       -0.2739
     25 C         139.6665  143.9036  157.8182 C.3     1  UNL1        0.0734
     26 C         138.0167  142.3354  156.5656 C.3     1  UNL1        0.0576
     27 C         138.0586  140.8412  156.4404 C.3     1  UNL1        0.0173
     28 C         136.7391  141.5519  156.5030 C.3     1  UNL1        0.0173
@<TRIPOS>BOND
     1     1     2    2
     2     2     3   am
     3     3    11    1
     4    11    12   ar
     5    12    13   ar
     6    13    14   ar
     7    14    15    1
     8    14    16   ar
     9    16    17    1
    10    16    18   ar
    11     2     4   am
    12     4     5    1
    13     5     6    1
    14     6     7    1
    15     7    19    1
    16    20    19    1
    17    20    21    1
    18    21    22    1
    19    22    23    1
    20    23    24    1
    21    24    26    1
    22    26    27    1
    23    27    28    1
    24    24    25    1
    25     7     8    1
    26     8     9    1
    27    18    11   ar
    28     9     4    1
    29    25    20    1
    30    28    26    1
    31     3    10    1
@<TRIPOS>MOLECULE
*****
 28 31 0 0 0
SMALL
GASTEIGER

@<TRIPOS>ATOM
      1 O         138.1156  139.8451  159.3278 O.2     1  UNL1       -0.2522
      2 C         139.5587  139.5374  159.5975 C.2     1  UNL1        0.3078
      3 N         140.2325  140.1053  160.8114 N.am    1  UNL1       -0.2681
      4 N         140.3281  138.6618  158.6533 N.am    1  UNL1       -0.2611
      5 C         139.6543  138.0939  157.4395 C.3     1  UNL1        0.1123
      6 C         140.4237  137.2183  156.4953 C.3     1  UNL1        0.0940
      7 N         141.8668  136.9107  156.7651 N.3     1  UNL1       -0.2697
      8 C         142.5405  137.4786  157.9789 C.3     1  UNL1        0.0940
      9 C         141.7712  138.3541  158.9231 C.3     1  UNL1        0.1123
     10 H         141.1796  139.9034  160.9884 H       1  UNL1        0.1564
     11 C         139.4631  140.9810  161.7556 C.ar    1  UNL1        0.0526
     12 C         138.5604  140.3648  162.7829 C.ar    1  UNL1        0.0171
     13 C         137.7911  141.2404  163.7270 C.ar    1  UNL1        0.0318
     14 C         137.9245  142.7322  163.6438 C.ar    1  UNL1        0.1507
     15 F         137.1551  143.6078  164.5880 F       1  UNL1       -0.2033
     16 C         138.8272  143.3483  162.6165 C.ar    1  UNL1        0.0863
     17 CL        138.9606  144.8400  162.5333 Cl      1  UNL1       -0.0799
     18 C         139.5965  142.4727  161.6724 C.ar    1  UNL1        0.0284
     19 C         142.6362  136.0350  155.8209 C.3     1  UNL1        0.0735
     20 C         142.6721  134.5509  156.0350 C.3     1  UNL1        0.0320
     21 C         143.6581  133.9554  156.9959 C.3     1  UNL1        0.0042
     22 C         143.6941  132.4713  157.2101 C.3     1  UNL1        0.0174
     23 C         142.7441  131.5825  156.4634 C.3     1  UNL1        0.0720
     24 N         141.7581  132.1779  155.5025 N.3     1  UNL1       -0.2739
     25 C         141.7221  133.6622  155.2883 C.3     1  UNL1        0.0734
     26 C         140.8081  131.2892  154.7557 C.3     1  UNL1        0.0576
     27 C         140.2683  130.7635  153.4588 C.3     1  UNL1        0.0173
     28 C         139.7024  130.2755  154.7594 C.3     1  UNL1        0.0173
@<TRIPOS>BOND
     1     1     2    2
     2     2     3   am
     3     3    11    1
     4    11    12   ar
     5    12    13   ar
     6    13    14   ar
     7    14    15    1
     8    14    16   ar
     9    16    17    1
    10    16    18   ar
    11     2     4   am
    12     4     5    1
    13     5     6    1
    14     6     7    1
    15     7    19    1
    16    20    19    1
    17    20    21    1
    18    21    22    1
    19    22    23    1
    20    23    24    1
    21    24    26    1
    22    26    27    1
    23    27    28    1
    24    24    25    1
    25     7     8    1
    26     8     9    1
    27    18    11   ar
    28     9     4    1
    29    25    20    1
    30    28    26    1
    31     3    10    1
@<TRIPOS>MOLECULE
*****
 28 31 0 0 0
SMALL
GASTEIGER

@<TRIPOS>ATOM
      1 O         142.2210  145.1169  159.3920 O.2     1  UNL1       -0.2522
      2 C         140.8200  144.8156  159.8354 C.2     1  UNL1        0.3078
      3 N         139.7140  144.7378  158.8252 N.am    1  UNL1       -0.2681
      4 N         140.5252  144.5922  161.2891 N.am    1  UNL1       -0.2611
      5 C         141.6312  144.6700  162.2993 C.3     1  UNL1        0.1123
      6 C         141.3363  144.4466  163.7529 C.3     1  UNL1        0.0940
      7 N         139.9354  144.1453  164.1964 N.3     1  UNL1       -0.2697
      8 C         138.8293  144.0675  163.1861 C.3     1  UNL1        0.0940
      9 C         139.1242  144.2909  161.7325 C.3     1  UNL1        0.1123
     10 H         138.7945  144.5401  159.1162 H       1  UNL1        0.1564
     11 C         140.0089  144.9612  157.3715 C.ar    1  UNL1        0.0526
     12 C         140.4728  143.8197  156.5162 C.ar    1  UNL1        0.0171
     13 C         140.7676  144.0431  155.0626 C.ar    1  UNL1        0.0318
     14 C         140.5986  145.4082  154.4642 C.ar    1  UNL1        0.1507
     15 F         140.8934  145.6316  153.0105 F       1  UNL1       -0.2033
     16 C         140.1347  146.5498  155.3195 C.ar    1  UNL1        0.0863
     17 CL        139.9656  147.9148  154.7211 Cl      1  UNL1       -0.0799
     18 C         139.8398  146.3263  156.7731 C.ar    1  UNL1        0.0284
     19 C         139.6405  143.9219  165.6501 C.3     1  UNL1        0.0735
     20 C         140.0109  142.6214  166.2992 C.3     1  UNL1        0.0320
     21 C         140.6341  142.6149  167.6636 C.3     1  UNL1        0.0042
     22 C         141.0045  141.3144  168.3127 C.3     1  UNL1        0.0174
     23 C         140.7517  140.0203  167.5975 C.3     1  UNL1        0.0720
     24 N         140.1285  140.0268  166.2331 N.3     1  UNL1       -0.2739
     25 C         139.7581  141.3274  165.5840 C.3     1  UNL1        0.0734
     26 C         139.8757  138.7328  165.5179 C.3     1  UNL1        0.0576
     27 C         138.9415  137.6276  165.1233 C.3     1  UNL1        0.0173
     28 C         140.3721  137.5967  164.6736 C.3     1  UNL1        0.0173
@<TRIPOS>BOND
     1     1     2    2
     2     2     3   am
     3     3    11    1
     4    11    12   ar
     5    12    13   ar
     6    13    14   ar
     7    14    15    1
     8    14    16   ar
     9    16    17    1
    10    16    18   ar
    11     2     4   am
    12     4     5    1
    13     5     6    1
    14     6     7    1
    15     7    19    1
    16    20    19    1
    17    20    21    1
    18    21    22    1
    19    22    23    1
    20    23    24    1
    21    24    26    1
    22    26    27    1
    23    27    28    1
    24    24    25    1
    25     7     8    1
    26     8     9    1
    27    18    11   ar
    28     9     4    1
    29    25    20    1
    30    28    26    1
    31     3    10    1
@<TRIPOS>MOLECULE
*****
 28 31 0 0 0
SMALL
GASTEIGER

@<TRIPOS>ATOM
      1 O         138.1616  139.7797  159.3243 O.2     1  UNL1       -0.2522
      2 C         139.5903  139.4439  159.6342 C.2     1  UNL1        0.3078
      3 N         140.2268  139.9611  160.8901 N.am    1  UNL1       -0.2681
      4 N         140.3825  138.5909  158.6882 N.am    1  UNL1       -0.2611
      5 C         139.7460  138.0737  157.4323 C.3     1  UNL1        0.1123
      6 C         140.5382  137.2207  156.4864 C.3     1  UNL1        0.0940
      7 N         141.9669  136.8849  156.7963 N.3     1  UNL1       -0.2697
      8 C         142.6034  137.4021  158.0522 C.3     1  UNL1        0.0940
      9 C         141.8112  138.2551  158.9982 C.3     1  UNL1        0.1123
     10 H         141.1645  139.7407  161.0935 H       1  UNL1        0.1564
     11 C         139.4346  140.8141  161.8361 C.ar    1  UNL1        0.0526
     12 C         138.5883  140.1724  162.8953 C.ar    1  UNL1        0.0171
     13 C         137.7962  141.0254  163.8413 C.ar    1  UNL1        0.0318
     14 C         137.8503  142.5201  163.7280 C.ar    1  UNL1        0.1507
     15 F         137.0581  143.3731  164.6740 F       1  UNL1       -0.2033
     16 C         138.6966  143.1618  162.6688 C.ar    1  UNL1        0.0863
     17 CL        138.7508  144.6566  162.5556 Cl      1  UNL1       -0.0799
     18 C         139.4888  142.3088  161.7229 C.ar    1  UNL1        0.0284
     19 C         142.7591  136.0319  155.8503 C.3     1  UNL1        0.0735
     20 C         142.4593  134.5671  155.7310 C.3     1  UNL1        0.0320
     21 C         141.4301  134.0896  154.7498 C.3     1  UNL1        0.0042
     22 C         141.1303  132.6247  154.6305 C.3     1  UNL1        0.0174
     23 C         141.8599  131.6372  155.4923 C.3     1  UNL1        0.0720
     24 N         142.8892  132.1147  156.4734 N.3     1  UNL1       -0.2739
     25 C         143.1889  133.5796  156.5927 C.3     1  UNL1        0.0734
     26 C         143.6187  131.1273  157.3352 C.3     1  UNL1        0.0576
     27 C         143.6605  129.8102  158.0518 C.3     1  UNL1        0.0173
     28 C         144.8407  130.7341  158.1112 C.3     1  UNL1        0.0173
@<TRIPOS>BOND
     1     1     2    2
     2     2     3   am
     3     3    11    1
     4    11    12   ar
     5    12    13   ar
     6    13    14   ar
     7    14    15    1
     8    14    16   ar
     9    16    17    1
    10    16    18   ar
    11     2     4   am
    12     4     5    1
    13     5     6    1
    14     6     7    1
    15     7    19    1
    16    20    19    1
    17    20    21    1
    18    21    22    1
    19    22    23    1
    20    23    24    1
    21    24    26    1
    22    26    27    1
    23    27    28    1
    24    24    25    1
    25     7     8    1
    26     8     9    1
    27    18    11   ar
    28     9     4    1
    29    25    20    1
    30    28    26    1
    31     3    10    1
@<TRIPOS>MOLECULE
*****
 28 31 0 0 0
SMALL
GASTEIGER

@<TRIPOS>ATOM
      1 O         139.0829  138.8885  158.2006 O.2     1  UNL1       -0.2522
      2 C         138.4767  139.8360  159.1929 C.2     1  UNL1        0.3078
      3 N         137.7853  141.0792  158.7171 N.am    1  UNL1       -0.2681
      4 N         138.5619  139.5403  160.6610 N.am    1  UNL1       -0.2611
      5 C         139.2532  138.2971  161.1368 C.3     1  UNL1        0.1123
      6 C         139.3384  138.0015  162.6049 C.3     1  UNL1        0.0940
      7 N         138.7321  138.9490  163.5972 N.3     1  UNL1       -0.2697
      8 C         138.0408  140.1922  163.1214 C.3     1  UNL1        0.0940
      9 C         137.9556  140.4879  161.6533 C.3     1  UNL1        0.1123
     10 H         137.3875  141.7011  159.3684 H       1  UNL1        0.1564
     11 C         137.7002  141.3750  157.2490 C.ar    1  UNL1        0.0526
     12 C         138.8611  142.0108  156.5434 C.ar    1  UNL1        0.0171
     13 C         138.7759  142.3065  155.0753 C.ar    1  UNL1        0.0318
     14 C         137.5298  141.9663  154.3128 C.ar    1  UNL1        0.1507
     15 F         137.4446  142.2620  152.8447 F       1  UNL1       -0.2033
     16 C         136.3688  141.3305  155.0184 C.ar    1  UNL1        0.0863
     17 CL        135.1227  140.9904  154.2559 Cl      1  UNL1       -0.0799
     18 C         136.4540  141.0348  156.4865 C.ar    1  UNL1        0.0284
     19 C         138.8173  138.6533  165.0653 C.3     1  UNL1        0.0735
     20 C         139.9218  139.2484  165.8874 C.3     1  UNL1        0.0320
     21 C         141.3418  138.8246  165.6550 C.3     1  UNL1        0.0042
     22 C         142.4462  139.4198  166.4771 C.3     1  UNL1        0.0174
     23 C         142.1308  140.4388  167.5317 C.3     1  UNL1        0.0720
     24 N         140.7108  140.8626  167.7642 N.3     1  UNL1       -0.2739
     25 C         139.6063  140.2674  166.9420 C.3     1  UNL1        0.0734
     26 C         140.3953  141.8816  168.8187 C.3     1  UNL1        0.0576
     27 C         139.8067  142.2300  170.1537 C.3     1  UNL1        0.0173
     28 C         140.4373  143.2981  169.3103 C.3     1  UNL1        0.0173
@<TRIPOS>BOND
     1     1     2    2
     2     2     3   am
     3     3    11    1
     4    11    12   ar
     5    12    13   ar
     6    13    14   ar
     7    14    15    1
     8    14    16   ar
     9    16    17    1
    10    16    18   ar
    11     2     4   am
    12     4     5    1
    13     5     6    1
    14     6     7    1
    15     7    19    1
    16    20    19    1
    17    20    21    1
    18    21    22    1
    19    22    23    1
    20    23    24    1
    21    24    26    1
    22    26    27    1
    23    27    28    1
    24    24    25    1
    25     7     8    1
    26     8     9    1
    27    18    11   ar
    28     9     4    1
    29    25    20    1
    30    28    26    1
    31     3    10    1
@<TRIPOS>MOLECULE
*****
 28 31 0 0 0
SMALL
GASTEIGER

@<TRIPOS>ATOM
      1 O         142.5411  141.5833  165.4218 O.2     1  UNL1       -0.2522
      2 C         142.1795  140.2202  164.9109 C.2     1  UNL1        0.3078
      3 N         141.5399  139.2206  165.8284 N.am    1  UNL1       -0.2681
      4 N         142.4574  139.8566  163.4823 N.am    1  UNL1       -0.2611
      5 C         143.0970  140.8561  162.5649 C.3     1  UNL1        0.1123
      6 C         143.3750  140.4925  161.1364 C.3     1  UNL1        0.0940
      7 N         143.0133  139.1294  160.6255 N.3     1  UNL1       -0.2697
      8 C         142.3738  138.1299  161.5429 C.3     1  UNL1        0.0940
      9 C         142.0958  138.4935  162.9714 C.3     1  UNL1        0.1123
     10 H         141.3025  138.3260  165.4930 H       1  UNL1        0.1564
     11 C         141.2619  139.5842  167.2569 C.ar    1  UNL1        0.0526
     12 C         139.8823  140.0046  167.6690 C.ar    1  UNL1        0.0171
     13 C         139.6044  140.3681  169.0974 C.ar    1  UNL1        0.0318
     14 C         140.7061  140.3113  170.1138 C.ar    1  UNL1        0.1507
     15 F         140.4281  140.6749  171.5423 F       1  UNL1       -0.2033
     16 C         142.0857  139.8909  169.7017 C.ar    1  UNL1        0.0863
     17 CL        143.1874  139.8341  170.7181 Cl      1  UNL1       -0.0799
     18 C         142.3636  139.5274  168.2733 C.ar    1  UNL1        0.0284
     19 C         143.2913  138.7658  159.1969 C.3     1  UNL1        0.0735
     20 C         142.1752  138.2962  158.3117 C.3     1  UNL1        0.0320
     21 C         140.8441  138.9864  158.3529 C.3     1  UNL1        0.0042
     22 C         139.7280  138.5168  157.4677 C.3     1  UNL1        0.0174
     23 C         139.9429  137.3568  156.5413 C.3     1  UNL1        0.0720
     24 N         141.2740  136.6665  156.5000 N.3     1  UNL1       -0.2739
     25 C         142.3901  137.1362  157.3853 C.3     1  UNL1        0.0734
     26 C         141.4889  135.5066  155.5736 C.3     1  UNL1        0.0576
     27 C         141.6731  134.0338  155.3571 C.3     1  UNL1        0.0173
     28 C         141.6771  134.9704  154.1854 C.3     1  UNL1        0.0173
@<TRIPOS>BOND
     1     1     2    2
     2     2     3   am
     3     3    11    1
     4    11    12   ar
     5    12    13   ar
     6    13    14   ar
     7    14    15    1
     8    14    16   ar
     9    16    17    1
    10    16    18   ar
    11     2     4   am
    12     4     5    1
    13     5     6    1
    14     6     7    1
    15     7    19    1
    16    20    19    1
    17    20    21    1
    18    21    22    1
    19    22    23    1
    20    23    24    1
    21    24    26    1
    22    26    27    1
    23    27    28    1
    24    24    25    1
    25     7     8    1
    26     8     9    1
    27    18    11   ar
    28     9     4    1
    29    25    20    1
    30    28    26    1
    31     3    10    1
