@<TRIPOS>MOLECULE
*****
 32 35 0 0 0
SMALL
GASTEIGER

@<TRIPOS>ATOM
      1 N         143.3930  138.5620  167.3179 N.pl3   1  UNL1       -0.2820
      2 H         143.9514  137.9051  167.7932 H       1  UNL1        0.1551
      3 C         142.2712  137.9281  163.5642 C.ar    1  UNL1        0.0491
      4 C         142.2836  137.8996  165.0639 C.ar    1  UNL1        0.0487
      5 C         143.3807  138.5906  165.8181 C.ar    1  UNL1        0.1345
      6 N         144.4655  139.3100  165.0728 N.ar    1  UNL1       -0.2290
      7 C         144.4531  139.3385  163.5731 C.ar    1  UNL1        0.1016
      8 C         143.3560  138.6476  162.8189 C.ar    1  UNL1        0.0354
      9 C         143.3436  138.6761  161.3191 C.ar    1  UNL1        0.0423
     10 C         143.8453  139.7943  160.4544 C.ar    1  UNL1        0.1217
     11 N         143.6392  139.4007  159.0217 N.ar    1  UNL1       -0.1676
     12 N         143.0101  138.0391  159.0010 N.ar    1  UNL1       -0.2473
     13 C         142.6303  137.2619  157.7756 C.3     1  UNL1        0.1538
     14 C         142.8274  137.5913  160.4209 C.ar    1  UNL1        0.0968
     15 C         139.7567  137.7078  162.9491 C.3     1  UNL1        0.1085
     16 N         141.1741  137.2372  162.8100 N.pl3   1  UNL1       -0.3312
     17 H         141.3843  136.4748  162.2236 H       1  UNL1        0.1469
     18 C         142.5546  139.5345  168.0934 C.ar    1  UNL1        0.1558
     19 C         142.3514  139.3409  169.5670 C.ar    1  UNL1        0.1342
     20 N         141.5129  140.3134  170.3425 N.ar    1  UNL1       -0.2263
     21 C         140.8778  141.4793  169.6444 C.ar    1  UNL1        0.2025
     22 C         141.0810  141.6728  168.1710 C.ar    1  UNL1        0.2543
     23 N         141.9194  140.7004  167.3954 N.ar    1  UNL1       -0.1931
     24 C         140.0393  142.4517  170.4200 C.1     1  UNL1        0.1246
     25 N         139.2009  143.4242  171.1955 N.1     1  UNL1       -0.1891
     26 O         140.4459  142.8387  167.4729 O.3     1  UNL1       -0.4610
     27 C         140.2023  142.7854  165.9938 C.3     1  UNL1        0.1849
     28 C         140.9188  143.5932  164.9526 C.3     1  UNL1        0.0623
     29 C         140.3588  143.2220  163.6115 C.3     1  UNL1        0.0760
     30 N         139.2962  142.1848  163.8239 N.3     1  UNL1       -0.2684
     31 C         138.4745  141.5320  162.7520 C.3     1  UNL1        0.0897
     32 C         139.1995  141.9150  165.2962 C.3     1  UNL1        0.1163
@<TRIPOS>BOND
     1    15    16    1
     2    16     3    1
     3     3     4   ar
     4     4     5   ar
     5     5     1    1
     6     1    18    1
     7    18    19   ar
     8    19    20   ar
     9    20    21   ar
    10    21    24    1
    11    24    25    3
    12    21    22   ar
    13    22    26    1
    14    27    26    1
    15    27    28    1
    16    28    29    1
    17    29    30    1
    18    30    31    1
    19    30    32    1
    20    22    23   ar
    21     5     6   ar
    22     6     7   ar
    23     7     8   ar
    24     8     9    1
    25     9    10   ar
    26    10    11   ar
    27    11    12   ar
    28    12    13    1
    29    12    14   ar
    30     8     3   ar
    31    14     9   ar
    32    23    18   ar
    33    32    27    1
    34    16    17    1
    35     1     2    1
@<TRIPOS>MOLECULE
*****
 32 35 0 0 0
SMALL
GASTEIGER

@<TRIPOS>ATOM
      1 N         143.3085  138.6554  166.9910 N.pl3   1  UNL1       -0.2820
      2 H         143.9990  138.0893  167.4058 H       1  UNL1        0.1551
      3 C         143.7198  139.2166  163.0838 C.ar    1  UNL1        0.0491
      4 C         143.9673  139.2968  164.5610 C.ar    1  UNL1        0.0487
      5 C         143.0609  138.5752  165.5137 C.ar    1  UNL1        0.1345
      6 N         141.9069  137.7733  164.9891 N.ar    1  UNL1       -0.2290
      7 C         141.6593  137.6931  163.5119 C.ar    1  UNL1        0.1016
      8 C         142.5657  138.4148  162.5592 C.ar    1  UNL1        0.0354
      9 C         142.3181  138.3346  161.0820 C.ar    1  UNL1        0.0423
     10 C         141.3401  139.1656  160.3055 C.ar    1  UNL1        0.1217
     11 N         141.4226  138.7539  158.8655 N.ar    1  UNL1       -0.1676
     12 N         142.4516  137.6683  158.7519 N.ar    1  UNL1       -0.2473
     13 C         142.8561  136.9653  157.4901 C.3     1  UNL1        0.1538
     14 C         143.0050  137.4092  160.1218 C.ar    1  UNL1        0.0968
     15 C         144.9162  141.3964  162.3307 C.3     1  UNL1        0.1085
     16 N         144.6262  139.9383  162.1311 N.pl3   1  UNL1       -0.3312
     17 H         145.0308  139.4550  161.3749 H       1  UNL1        0.1469
     18 C         142.5042  139.5981  167.8362 C.ar    1  UNL1        0.1558
     19 C         142.3740  139.3580  169.3111 C.ar    1  UNL1        0.1342
     20 N         141.5697  140.3007  170.1563 N.ar    1  UNL1       -0.2263
     21 C         140.8955  141.4835  169.5265 C.ar    1  UNL1        0.2025
     22 C         141.0256  141.7235  168.0516 C.ar    1  UNL1        0.2543
     23 N         141.8300  140.7808  167.2064 N.ar    1  UNL1       -0.1931
     24 C         140.0911  142.4262  170.3717 C.1     1  UNL1        0.1246
     25 N         139.2867  143.3689  171.2168 N.1     1  UNL1       -0.1891
     26 O         140.3514  142.9062  167.4218 O.3     1  UNL1       -0.4610
     27 C         140.1866  142.9703  165.9323 C.3     1  UNL1        0.1849
     28 C         141.1825  143.5265  164.9581 C.3     1  UNL1        0.0623
     29 C         140.6084  143.3894  163.5792 C.3     1  UNL1        0.0760
     30 N         139.2576  142.7486  163.7011 N.3     1  UNL1       -0.2684
     31 C         138.3304  142.4237  162.5676 C.3     1  UNL1        0.0897
     32 C         138.9970  142.4896  165.1554 C.3     1  UNL1        0.1163
@<TRIPOS>BOND
     1    15    16    1
     2    16     3    1
     3     3     4   ar
     4     4     5   ar
     5     5     1    1
     6     1    18    1
     7    18    19   ar
     8    19    20   ar
     9    20    21   ar
    10    21    24    1
    11    24    25    3
    12    21    22   ar
    13    22    26    1
    14    27    26    1
    15    27    28    1
    16    28    29    1
    17    29    30    1
    18    30    31    1
    19    30    32    1
    20    22    23   ar
    21     5     6   ar
    22     6     7   ar
    23     7     8   ar
    24     8     9    1
    25     9    10   ar
    26    10    11   ar
    27    11    12   ar
    28    12    13    1
    29    12    14   ar
    30     8     3   ar
    31    14     9   ar
    32    23    18   ar
    33    32    27    1
    34    16    17    1
    35     1     2    1
@<TRIPOS>MOLECULE
*****
 32 35 0 0 0
SMALL
GASTEIGER

@<TRIPOS>ATOM
      1 N         139.7276  138.3518  159.8977 N.pl3   1  UNL1       -0.2820
      2 H         139.0814  137.8510  159.3493 H       1  UNL1        0.1551
      3 C         138.3361  139.7446  163.3436 C.ar    1  UNL1        0.0491
      4 C         138.5690  139.5827  161.8707 C.ar    1  UNL1        0.0487
      5 C         139.4948  138.5136  161.3707 C.ar    1  UNL1        0.1345
      6 N         140.1877  137.6064  162.3437 N.ar    1  UNL1       -0.2290
      7 C         139.9548  137.7682  163.8166 C.ar    1  UNL1        0.1016
      8 C         139.0291  138.8373  164.3166 C.ar    1  UNL1        0.0354
      9 C         138.7962  138.9991  165.7896 C.ar    1  UNL1        0.0423
     10 C         137.7383  138.3063  166.5963 C.ar    1  UNL1        0.1217
     11 N         137.8687  138.7611  168.0197 N.ar    1  UNL1       -0.1676
     12 N         139.0072  139.7351  168.0927 N.ar    1  UNL1       -0.2473
     13 C         139.4881  140.4385  169.3272 C.3     1  UNL1        0.1538
     14 C         139.5804  139.8821  166.7144 C.ar    1  UNL1        0.0968
     15 C         137.8343  142.2519  163.8033 C.3     1  UNL1        0.1085
     16 N         137.4104  140.8137  163.8436 N.pl3   1  UNL1       -0.3312
     17 H         136.5245  140.5714  164.1982 H       1  UNL1        0.1469
     18 C         140.9450  138.9532  159.2604 C.ar    1  UNL1        0.1558
     19 C         141.8915  138.0857  158.4846 C.ar    1  UNL1        0.1342
     20 N         143.1089  138.6871  157.8472 N.ar    1  UNL1       -0.2263
     21 C         143.3799  140.1560  157.9856 C.ar    1  UNL1        0.2025
     22 C         142.4335  141.0234  158.7614 C.ar    1  UNL1        0.2543
     23 N         141.2160  140.4220  159.3987 N.ar    1  UNL1       -0.1931
     24 C         144.5973  140.7573  157.3483 C.1     1  UNL1        0.1246
     25 N         145.8147  141.3587  156.7109 N.1     1  UNL1       -0.1891
     26 O         142.7044  142.4922  158.8998 O.3     1  UNL1       -0.4610
     27 C         143.1629  143.0497  160.2147 C.3     1  UNL1        0.1849
     28 C         144.4809  142.7765  160.8767 C.3     1  UNL1        0.0623
     29 C         144.5166  143.5361  162.1696 C.3     1  UNL1        0.0760
     30 N         143.2205  144.2788  162.3067 N.3     1  UNL1       -0.2684
     31 C         142.8297  145.1664  163.4510 C.3     1  UNL1        0.0897
     32 C         142.3840  143.9782  161.0985 C.3     1  UNL1        0.1163
@<TRIPOS>BOND
     1    15    16    1
     2    16     3    1
     3     3     4   ar
     4     4     5   ar
     5     5     1    1
     6     1    18    1
     7    18    19   ar
     8    19    20   ar
     9    20    21   ar
    10    21    24    1
    11    24    25    3
    12    21    22   ar
    13    22    26    1
    14    27    26    1
    15    27    28    1
    16    28    29    1
    17    29    30    1
    18    30    31    1
    19    30    32    1
    20    22    23   ar
    21     5     6   ar
    22     6     7   ar
    23     7     8   ar
    24     8     9    1
    25     9    10   ar
    26    10    11   ar
    27    11    12   ar
    28    12    13    1
    29    12    14   ar
    30     8     3   ar
    31    14     9   ar
    32    23    18   ar
    33    32    27    1
    34    16    17    1
    35     1     2    1
@<TRIPOS>MOLECULE
*****
 32 35 0 0 0
SMALL
GASTEIGER

@<TRIPOS>ATOM
      1 N         137.9629  142.0186  162.5186 N.pl3   1  UNL1       -0.2820
      2 H         137.0441  141.7820  162.2557 H       1  UNL1        0.1551
      3 C         138.7728  139.7765  165.6914 C.ar    1  UNL1        0.0491
      4 C         138.2424  140.2014  164.3542 C.ar    1  UNL1        0.0487
      5 C         138.4933  141.5937  163.8559 C.ar    1  UNL1        0.1345
      6 N         139.2745  142.5612  164.6947 N.ar    1  UNL1       -0.2290
      7 C         139.8049  142.1363  166.0319 C.ar    1  UNL1        0.1016
      8 C         139.5540  140.7439  166.5302 C.ar    1  UNL1        0.0354
      9 C         140.0844  140.3190  167.8675 C.ar    1  UNL1        0.0423
     10 C         139.3198  140.3132  169.1580 C.ar    1  UNL1        0.1217
     11 N         140.2354  139.8160  170.2370 N.ar    1  UNL1       -0.1676
     12 N         141.5659  139.5144  169.6135 N.ar    1  UNL1       -0.2473
     13 C         142.7771  138.9934  170.3288 C.3     1  UNL1        0.1538
     14 C         141.4726  139.8253  168.1490 C.ar    1  UNL1        0.0968
     15 C         137.3562  138.1094  167.0929 C.3     1  UNL1        0.1085
     16 N         138.5219  138.3841  166.1898 N.pl3   1  UNL1       -0.3312
     17 H         139.1223  137.6505  165.9241 H       1  UNL1        0.1469
     18 C         138.8323  142.8040  161.5820 C.ar    1  UNL1        0.1558
     19 C         138.4920  142.8729  160.1227 C.ar    1  UNL1        0.1342
     20 N         139.3615  143.6582  159.1860 N.ar    1  UNL1       -0.2263
     21 C         140.5713  144.3746  159.7087 C.ar    1  UNL1        0.2025
     22 C         140.9116  144.3057  161.1680 C.ar    1  UNL1        0.2543
     23 N         140.0421  143.5203  162.1046 N.ar    1  UNL1       -0.1931
     24 C         141.4408  145.1600  158.7721 C.1     1  UNL1        0.1246
     25 N         142.3103  145.9453  157.8355 N.1     1  UNL1       -0.1891
     26 O         142.1214  145.0221  161.6907 O.3     1  UNL1       -0.4610
     27 C         143.0757  144.3134  162.6055 C.3     1  UNL1        0.1849
     28 C         143.3059  144.6273  164.0542 C.3     1  UNL1        0.0623
     29 C         144.3399  143.6743  164.5764 C.3     1  UNL1        0.0760
     30 N         144.7487  142.7714  163.4504 N.3     1  UNL1       -0.2684
     31 C         145.7611  141.6673  163.5288 C.3     1  UNL1        0.0897
     32 C         143.9674  143.1664  162.2324 C.3     1  UNL1        0.1163
@<TRIPOS>BOND
     1    15    16    1
     2    16     3    1
     3     3     4   ar
     4     4     5   ar
     5     5     1    1
     6     1    18    1
     7    18    19   ar
     8    19    20   ar
     9    20    21   ar
    10    21    24    1
    11    24    25    3
    12    21    22   ar
    13    22    26    1
    14    27    26    1
    15    27    28    1
    16    28    29    1
    17    29    30    1
    18    30    31    1
    19    30    32    1
    20    22    23   ar
    21     5     6   ar
    22     6     7   ar
    23     7     8   ar
    24     8     9    1
    25     9    10   ar
    26    10    11   ar
    27    11    12   ar
    28    12    13    1
    29    12    14   ar
    30     8     3   ar
    31    14     9   ar
    32    23    18   ar
    33    32    27    1
    34    16    17    1
    35     1     2    1
@<TRIPOS>MOLECULE
*****
 32 35 0 0 0
SMALL
GASTEIGER

@<TRIPOS>ATOM
      1 N         138.9547  138.3888  159.8532 N.pl3   1  UNL1       -0.2820
      2 H         138.1602  138.0643  159.3707 H       1  UNL1        0.1551
      3 C         138.1111  139.9279  163.4126 C.ar    1  UNL1        0.0491
      4 C         138.1614  139.7406  161.9252 C.ar    1  UNL1        0.0487
      5 C         138.9044  138.5760  161.3407 C.ar    1  UNL1        0.1345
      6 N         139.5971  137.5988  162.2435 N.ar    1  UNL1       -0.2290
      7 C         139.5468  137.7861  163.7308 C.ar    1  UNL1        0.1016
      8 C         138.8038  138.9506  164.3154 C.ar    1  UNL1        0.0354
      9 C         138.7535  139.1379  165.8029 C.ar    1  UNL1        0.0423
     10 C         137.7587  138.5149  166.7368 C.ar    1  UNL1        0.1217
     11 N         138.0796  138.9730  168.1286 N.ar    1  UNL1       -0.1676
     12 N         139.2727  139.8792  168.0549 N.ar    1  UNL1       -0.2473
     13 C         139.9333  140.5633  169.2149 C.3     1  UNL1        0.1538
     14 C         139.6891  139.9811  166.6175 C.ar    1  UNL1        0.0968
     15 C         137.6773  142.4864  163.5377 C.3     1  UNL1        0.1085
     16 N         137.3681  141.0924  163.9972 N.pl3   1  UNL1       -0.3312
     17 H         136.6774  140.9419  164.6825 H       1  UNL1        0.1469
     18 C         140.2155  138.6959  159.1008 C.ar    1  UNL1        0.1558
     19 C         140.1647  138.9473  157.6229 C.ar    1  UNL1        0.1342
     20 N         141.4255  139.2544  156.8705 N.ar    1  UNL1       -0.2263
     21 C         142.7372  139.3101  157.5962 C.ar    1  UNL1        0.2025
     22 C         142.7880  139.0587  159.0740 C.ar    1  UNL1        0.2543
     23 N         141.5272  138.7516  159.8264 N.ar    1  UNL1       -0.1931
     24 C         143.9980  139.6172  156.8438 C.1     1  UNL1        0.1246
     25 N         145.2588  139.9243  156.0915 N.1     1  UNL1       -0.1891
     26 O         144.0997  139.1144  159.7997 O.3     1  UNL1       -0.4610
     27 C         144.1329  139.4292  161.2658 C.3     1  UNL1        0.1849
     28 C         143.8698  138.4617  162.3816 C.3     1  UNL1        0.0623
     29 C         144.0094  139.2014  163.6790 C.3     1  UNL1        0.0760
     30 N         144.3588  140.6260  163.3652 N.3     1  UNL1       -0.2684
     31 C         144.5911  141.7181  164.3669 C.3     1  UNL1        0.0897
     32 C         144.4352  140.7667  161.8737 C.3     1  UNL1        0.1163
@<TRIPOS>BOND
     1    15    16    1
     2    16     3    1
     3     3     4   ar
     4     4     5   ar
     5     5     1    1
     6     1    18    1
     7    18    19   ar
     8    19    20   ar
     9    20    21   ar
    10    21    24    1
    11    24    25    3
    12    21    22   ar
    13    22    26    1
    14    27    26    1
    15    27    28    1
    16    28    29    1
    17    29    30    1
    18    30    31    1
    19    30    32    1
    20    22    23   ar
    21     5     6   ar
    22     6     7   ar
    23     7     8   ar
    24     8     9    1
    25     9    10   ar
    26    10    11   ar
    27    11    12   ar
    28    12    13    1
    29    12    14   ar
    30     8     3   ar
    31    14     9   ar
    32    23    18   ar
    33    32    27    1
    34    16    17    1
    35     1     2    1
@<TRIPOS>MOLECULE
*****
 32 35 0 0 0
SMALL
GASTEIGER

@<TRIPOS>ATOM
      1 N         139.7544  143.1396  165.9834 N.pl3   1  UNL1       -0.2820
      2 H         139.0055  143.6623  166.3511 H       1  UNL1        0.1551
      3 C         141.9695  144.2773  162.8932 C.ar    1  UNL1        0.0491
      4 C         141.5169  144.0485  164.3049 C.ar    1  UNL1        0.0487
      5 C         140.2069  143.3684  164.5716 C.ar    1  UNL1        0.1345
      6 N         139.3493  142.9170  163.4267 N.ar    1  UNL1       -0.2290
      7 C         139.8018  143.1458  162.0151 C.ar    1  UNL1        0.1016
      8 C         141.1119  143.8259  161.7483 C.ar    1  UNL1        0.0354
      9 C         141.5644  144.0547  160.3365 C.ar    1  UNL1        0.0423
     10 C         142.4645  143.1551  159.5424 C.ar    1  UNL1        0.1217
     11 N         142.6526  143.7677  158.1862 N.ar    1  UNL1       -0.1676
     12 N         141.8688  145.0459  158.1421 N.ar    1  UNL1       -0.2473
     13 C         141.7742  145.9823  156.9741 C.3     1  UNL1        0.1538
     14 C         141.1963  145.2233  159.4711 C.ar    1  UNL1        0.0968
     15 C         144.5438  144.1524  162.5657 C.3     1  UNL1        0.1085
     16 N         143.2795  144.9574  162.6265 N.pl3   1  UNL1       -0.3312
     17 H         143.3096  145.9321  162.4913 H       1  UNL1        0.1469
     18 C         140.4429  142.1144  166.8348 C.ar    1  UNL1        0.1558
     19 C         140.4111  142.2371  168.3295 C.ar    1  UNL1        0.1342
     20 N         141.0997  141.2120  169.1810 N.ar    1  UNL1       -0.2263
     21 C         141.8200  140.0641  168.5377 C.ar    1  UNL1        0.2025
     22 C         141.8517  139.9415  167.0431 C.ar    1  UNL1        0.2543
     23 N         141.1632  140.9666  166.1917 N.ar    1  UNL1       -0.1931
     24 C         142.5085  139.0390  169.3892 C.1     1  UNL1        0.1246
     25 N         143.1971  138.0138  170.2406 N.1     1  UNL1       -0.1891
     26 O         142.5720  138.7936  166.3999 O.3     1  UNL1       -0.4610
     27 C         142.1579  138.3158  165.0397 C.3     1  UNL1        0.1849
     28 C         140.9392  137.4998  164.7251 C.3     1  UNL1        0.0623
     29 C         140.9178  137.2498  163.2463 C.3     1  UNL1        0.0760
     30 N         142.1233  137.9113  162.6469 N.3     1  UNL1       -0.2684
     31 C         142.4967  137.9136  161.1941 C.3     1  UNL1        0.0897
     32 C         142.8896  138.5702  163.7553 C.3     1  UNL1        0.1163
@<TRIPOS>BOND
     1    15    16    1
     2    16     3    1
     3     3     4   ar
     4     4     5   ar
     5     5     1    1
     6     1    18    1
     7    18    19   ar
     8    19    20   ar
     9    20    21   ar
    10    21    24    1
    11    24    25    3
    12    21    22   ar
    13    22    26    1
    14    27    26    1
    15    27    28    1
    16    28    29    1
    17    29    30    1
    18    30    31    1
    19    30    32    1
    20    22    23   ar
    21     5     6   ar
    22     6     7   ar
    23     7     8   ar
    24     8     9    1
    25     9    10   ar
    26    10    11   ar
    27    11    12   ar
    28    12    13    1
    29    12    14   ar
    30     8     3   ar
    31    14     9   ar
    32    23    18   ar
    33    32    27    1
    34    16    17    1
    35     1     2    1
@<TRIPOS>MOLECULE
*****
 32 35 0 0 0
SMALL
GASTEIGER

@<TRIPOS>ATOM
      1 N         139.3820  138.3621  159.8514 N.pl3   1  UNL1       -0.2820
      2 H         138.6717  137.9198  159.3326 H       1  UNL1        0.1551
      3 C         138.2155  139.8127  163.3565 C.ar    1  UNL1        0.0491
      4 C         138.3673  139.6380  161.8745 C.ar    1  UNL1        0.0487
      5 C         139.2303  138.5368  161.3335 C.ar    1  UNL1        0.1345
      6 N         139.9415  137.6103  162.2746 N.ar    1  UNL1       -0.2290
      7 C         139.7898  137.7850  163.7566 C.ar    1  UNL1        0.1016
      8 C         138.9268  138.8862  164.2976 C.ar    1  UNL1        0.0354
      9 C         138.7751  139.0609  165.7797 C.ar    1  UNL1        0.0423
     10 C         137.7375  138.4066  166.6430 C.ar    1  UNL1        0.1217
     11 N         137.9555  138.8619  168.0554 N.ar    1  UNL1       -0.1676
     12 N         139.1279  139.7977  168.0651 N.ar    1  UNL1       -0.2473
     13 C         139.6942  140.4890  169.2698 C.3     1  UNL1        0.1538
     14 C         139.6344  139.9207  166.6586 C.ar    1  UNL1        0.0968
     15 C         137.8526  142.3280  163.8960 C.3     1  UNL1        0.1085
     16 N         137.3525  140.9139  163.8974 N.pl3   1  UNL1       -0.3312
     17 H         136.4579  140.7085  164.2533 H       1  UNL1        0.1469
     18 C         140.6159  138.8612  159.1599 C.ar    1  UNL1        0.1558
     19 C         141.1718  140.2123  159.5000 C.ar    1  UNL1        0.1342
     20 N         142.4057  140.7114  158.8085 N.ar    1  UNL1       -0.2263
     21 C         143.0838  139.8595  157.7767 C.ar    1  UNL1        0.2025
     22 C         142.5279  138.5084  157.4366 C.ar    1  UNL1        0.2543
     23 N         141.2940  138.0093  158.1281 N.ar    1  UNL1       -0.1931
     24 C         144.3177  140.3586  157.0851 C.1     1  UNL1        0.1246
     25 N         145.5516  140.8577  156.3935 N.1     1  UNL1       -0.1891
     26 O         143.2060  137.6565  156.4048 O.3     1  UNL1       -0.4610
     27 C         142.7920  136.2262  156.2234 C.3     1  UNL1        0.1849
     28 C         141.7194  135.7291  155.3001 C.3     1  UNL1        0.0623
     29 C         141.6425  134.2376  155.4394 C.3     1  UNL1        0.0760
     30 N         142.6676  133.8129  156.4489 N.3     1  UNL1       -0.2684
     31 C         142.9352  132.4061  156.8955 C.3     1  UNL1        0.0897
     32 C         143.3780  135.0420  156.9334 C.3     1  UNL1        0.1163
@<TRIPOS>BOND
     1    15    16    1
     2    16     3    1
     3     3     4   ar
     4     4     5   ar
     5     5     1    1
     6     1    18    1
     7    18    19   ar
     8    19    20   ar
     9    20    21   ar
    10    21    24    1
    11    24    25    3
    12    21    22   ar
    13    22    26    1
    14    27    26    1
    15    27    28    1
    16    28    29    1
    17    29    30    1
    18    30    31    1
    19    30    32    1
    20    22    23   ar
    21     5     6   ar
    22     6     7   ar
    23     7     8   ar
    24     8     9    1
    25     9    10   ar
    26    10    11   ar
    27    11    12   ar
    28    12    13    1
    29    12    14   ar
    30     8     3   ar
    31    14     9   ar
    32    23    18   ar
    33    32    27    1
    34    16    17    1
    35     1     2    1
@<TRIPOS>MOLECULE
*****
 32 35 0 0 0
SMALL
GASTEIGER

@<TRIPOS>ATOM
      1 N         143.2733  142.4304  166.9372 N.pl3   1  UNL1       -0.2820
      2 H         144.0052  142.8740  167.4240 H       1  UNL1        0.1551
      3 C         144.0292  141.0135  163.3080 C.ar    1  UNL1        0.0491
      4 C         143.9757  141.1261  164.8028 C.ar    1  UNL1        0.0487
      5 C         143.3269  142.3178  165.4424 C.ar    1  UNL1        0.1345
      6 N         142.7316  143.3968  164.5871 N.ar    1  UNL1       -0.2290
      7 C         142.7852  143.2841  163.0924 C.ar    1  UNL1        0.1016
      8 C         143.4340  142.0925  162.4528 C.ar    1  UNL1        0.0354
      9 C         143.4875  141.9798  160.9580 C.ar    1  UNL1        0.0423
     10 C         142.4144  141.4111  160.0776 C.ar    1  UNL1        0.1217
     11 N         142.8873  141.4959  158.6566 N.ar    1  UNL1       -0.1676
     12 N         144.2527  142.1171  158.6587 N.ar    1  UNL1       -0.2473
     13 C         145.0985  142.3910  157.4507 C.3     1  UNL1        0.1538
     14 C         144.6236  142.4161  160.0810 C.ar    1  UNL1        0.0968
     15 C         143.8690  138.5921  162.3802 C.3     1  UNL1        0.1085
     16 N         144.6780  139.8218  162.6685 N.pl3   1  UNL1       -0.3312
     17 H         145.6348  139.8468  162.4380 H       1  UNL1        0.1469
     18 C         142.1047  141.8673  167.6904 C.ar    1  UNL1        0.1558
     19 C         141.8278  142.3206  169.0932 C.ar    1  UNL1        0.1342
     20 N         140.6592  141.7575  169.8464 N.ar    1  UNL1       -0.2263
     21 C         139.7675  140.7411  169.1967 C.ar    1  UNL1        0.2025
     22 C         140.0445  140.2879  167.7939 C.ar    1  UNL1        0.2543
     23 N         141.2131  140.8510  167.0408 N.ar    1  UNL1       -0.1931
     24 C         138.5989  140.1780  169.9499 C.1     1  UNL1        0.1246
     25 N         137.4303  139.6149  170.7030 N.1     1  UNL1       -0.1891
     26 O         139.1528  139.2715  167.1442 O.3     1  UNL1       -0.4610
     27 C         138.7888  139.4100  165.6957 C.3     1  UNL1        0.1849
     28 C         138.2837  140.6549  165.0286 C.3     1  UNL1        0.0623
     29 C         138.0486  140.3421  163.5805 C.3     1  UNL1        0.0760
     30 N         138.4084  138.9038  163.3527 N.3     1  UNL1       -0.2684
     31 C         138.3254  138.1704  162.0469 C.3     1  UNL1        0.0897
     32 C         138.8659  138.3277  164.6599 C.3     1  UNL1        0.1163
@<TRIPOS>BOND
     1    15    16    1
     2    16     3    1
     3     3     4   ar
     4     4     5   ar
     5     5     1    1
     6     1    18    1
     7    18    19   ar
     8    19    20   ar
     9    20    21   ar
    10    21    24    1
    11    24    25    3
    12    21    22   ar
    13    22    26    1
    14    27    26    1
    15    27    28    1
    16    28    29    1
    17    29    30    1
    18    30    31    1
    19    30    32    1
    20    22    23   ar
    21     5     6   ar
    22     6     7   ar
    23     7     8   ar
    24     8     9    1
    25     9    10   ar
    26    10    11   ar
    27    11    12   ar
    28    12    13    1
    29    12    14   ar
    30     8     3   ar
    31    14     9   ar
    32    23    18   ar
    33    32    27    1
    34    16    17    1
    35     1     2    1
@<TRIPOS>MOLECULE
*****
 32 35 0 0 0
SMALL
GASTEIGER

@<TRIPOS>ATOM
      1 N         138.4100  138.7517  163.9388 N.pl3   1  UNL1       -0.2820
      2 H         137.9575  137.8923  163.7776 H       1  UNL1        0.1551
      3 C         138.2655  142.0601  161.7516 C.ar    1  UNL1        0.0491
      4 C         138.0549  141.0994  162.8842 C.ar    1  UNL1        0.0487
      5 C         138.6206  139.7123  162.8061 C.ar    1  UNL1        0.1345
      6 N         139.3968  139.2859  161.5955 N.ar    1  UNL1       -0.2290
      7 C         139.6073  140.2466  160.4629 C.ar    1  UNL1        0.1016
      8 C         139.0417  141.6336  160.5410 C.ar    1  UNL1        0.0354
      9 C         139.2523  142.5943  159.4083 C.ar    1  UNL1        0.0423
     10 C         138.6072  142.5184  158.0563 C.ar    1  UNL1        0.1217
     11 N         139.1012  143.6767  157.2413 N.ar    1  UNL1       -0.1676
     12 N         140.0517  144.4686  158.0896 N.ar    1  UNL1       -0.2473
     13 C         140.7807  145.7112  157.6720 C.3     1  UNL1        0.1538
     14 C         140.1451  143.7996  159.4289 C.ar    1  UNL1        0.0968
     15 C         137.7191  144.1928  163.1310 C.3     1  UNL1        0.1085
     16 N         137.6999  143.4471  161.8296 N.pl3   1  UNL1       -0.3312
     17 H         137.3161  143.8681  161.0267 H       1  UNL1        0.1469
     18 C         138.8887  139.1004  165.3168 C.ar    1  UNL1        0.1558
     19 C         137.9782  138.9199  166.4952 C.ar    1  UNL1        0.1342
     20 N         138.4570  139.2686  167.8733 N.ar    1  UNL1       -0.2263
     21 C         139.8463  139.7980  168.0730 C.ar    1  UNL1        0.2025
     22 C         140.7567  139.9785  166.8947 C.ar    1  UNL1        0.2543
     23 N         140.2779  139.6297  165.5166 N.ar    1  UNL1       -0.1931
     24 C         140.3251  140.1468  169.4511 C.1     1  UNL1        0.1246
     25 N         140.8038  140.4955  170.8292 N.1     1  UNL1       -0.1891
     26 O         142.1460  140.5078  167.0944 O.3     1  UNL1       -0.4610
     27 C         143.1625  140.3786  165.9990 C.3     1  UNL1        0.1849
     28 C         143.7647  139.0980  165.5016 C.3     1  UNL1        0.0623
     29 C         144.7297  139.4351  164.4038 C.3     1  UNL1        0.0760
     30 N         144.7239  140.9242  164.2228 N.3     1  UNL1       -0.2684
     31 C         145.5429  141.6949  163.2302 C.3     1  UNL1        0.0897
     32 C         143.7553  141.5073  165.2087 C.3     1  UNL1        0.1163
@<TRIPOS>BOND
     1    15    16    1
     2    16     3    1
     3     3     4   ar
     4     4     5   ar
     5     5     1    1
     6     1    18    1
     7    18    19   ar
     8    19    20   ar
     9    20    21   ar
    10    21    24    1
    11    24    25    3
    12    21    22   ar
    13    22    26    1
    14    27    26    1
    15    27    28    1
    16    28    29    1
    17    29    30    1
    18    30    31    1
    19    30    32    1
    20    22    23   ar
    21     5     6   ar
    22     6     7   ar
    23     7     8   ar
    24     8     9    1
    25     9    10   ar
    26    10    11   ar
    27    11    12   ar
    28    12    13    1
    29    12    14   ar
    30     8     3   ar
    31    14     9   ar
    32    23    18   ar
    33    32    27    1
    34    16    17    1
    35     1     2    1
