@<TRIPOS>MOLECULE
*****
 40 43 0 0 0
SMALL
GASTEIGER

@<TRIPOS>ATOM
      1 C         139.8690  140.4484  167.7317 C.ar    1  UNL1        0.0203
      2 C         138.8595  139.3390  167.7196 C.ar    1  UNL1        0.0310
      3 C         138.1979  138.9410  166.4336 C.ar    1  UNL1        0.1414
      4 F         137.1883  137.8316  166.4216 F       1  UNL1       -0.2041
      5 C         138.5457  139.6524  165.1596 C.ar    1  UNL1        0.0440
      6 C         139.5552  140.7618  165.1717 C.ar    1  UNL1        0.0488
      7 C         140.2169  141.1598  166.4577 C.ar    1  UNL1       -0.0067
      8 C         141.2264  142.2691  166.4698 C.3     1  UNL1        0.0324
      9 C         141.7677  140.1330  169.4768 C.ar    1  UNL1        0.1870
     10 C         142.4294  140.5310  170.7628 C.ar    1  UNL1        0.1629
     11 N         143.6665  139.8176  171.2220 N.pl3   1  UNL1       -0.3401
     12 N         141.8539  141.6424  171.5897 N.ar    1  UNL1       -0.2063
     13 C         140.6169  142.3557  171.1306 C.ar    1  UNL1        0.2002
     14 N         139.9553  141.9577  169.8446 N.ar    1  UNL1       -0.2208
     15 C         140.5307  140.8464  169.0177 C.ar    1  UNL1        0.1194
     16 H         144.0441  139.0882  170.6793 H       1  UNL1        0.1438
     17 H         144.1007  140.0789  172.0660 H       1  UNL1        0.1438
     18 O         142.3432  139.0216  168.6499 O.3     1  UNL1       -0.4693
     19 C         143.1186  139.3369  167.4052 C.3     1  UNL1        0.2270
     20 C         143.1455  138.3570  166.2699 C.3     1  UNL1        0.1410
     21 C         141.7944  138.0215  164.0763 C.2     1  UNL1        0.2493
     22 O         141.1615  136.7905  164.6543 O.2     1  UNL1       -0.2699
     23 N         142.7864  138.8047  164.8840 N.am    1  UNL1       -0.2705
     24 C         143.4193  140.0357  164.3060 C.3     1  UNL1        0.1153
     25 C         140.1503  138.0142  162.0645 C.2     1  UNL1        0.0048
     26 C         141.4353  138.4692  162.6904 C.2     1  UNL1        0.0580
     27 N         139.9031  141.4731  163.8978 N.am    1  UNL1       -0.2805
     28 C         139.1017  142.6633  163.4605 C.2     1  UNL1        0.2517
     29 O         137.9524  143.1421  164.2972 O.2     1  UNL1       -0.2697
     30 H         140.6574  141.1589  163.3487 H       1  UNL1        0.1552
     31 C         139.4495  143.3747  162.1866 C.ar    1  UNL1        0.0810
     32 C         139.9719  144.7801  162.2309 C.ar    1  UNL1        0.0065
     33 C         140.3197  145.4915  160.9570 C.ar    1  UNL1       -0.0040
     34 C         140.1451  144.7975  159.6387 C.ar    1  UNL1       -0.0203
     35 C         139.6227  143.3921  159.5943 C.ar    1  UNL1        0.0255
     36 C         139.2749  142.6808  160.8683 C.ar    1  UNL1        0.1441
     37 F         138.7524  141.2753  160.8239 F       1  UNL1       -0.2040
     38 C         140.4929  145.5089  158.3647 C.3     1  UNL1        0.0224
     39 C         140.0681  146.2740  157.1465 C.3     1  UNL1        0.0047
     40 C         141.5201  145.9761  157.3765 C.3     1  UNL1        0.0047
@<TRIPOS>BOND
     1    25    26    2
     2    26    21    1
     3    21    22    2
     4    21    23   am
     5    23    24    1
     6    23    20    1
     7    20    19    1
     8    19    18    1
     9    18     9    1
    10     9    10   ar
    11    10    11    1
    12    10    12   ar
    13    12    13   ar
    14    13    14   ar
    15    14    15   ar
    16    15     1    1
    17     1     2   ar
    18     2     3   ar
    19     3     4    1
    20     3     5   ar
    21     5     6   ar
    22     6    27    1
    23    27    28   am
    24    28    29    2
    25    28    31    1
    26    31    32   ar
    27    32    33   ar
    28    33    34   ar
    29    34    38    1
    30    38    39    1
    31    39    40    1
    32    34    35   ar
    33    35    36   ar
    34    36    37    1
    35     6     7   ar
    36     7     8    1
    37    15     9   ar
    38     7     1   ar
    39    36    31   ar
    40    40    38    1
    41    11    16    1
    42    11    17    1
    43    27    30    1
@<TRIPOS>MOLECULE
*****
 40 43 0 0 0
SMALL
GASTEIGER

@<TRIPOS>ATOM
      1 C         141.4560  140.9824  166.8829 C.ar    1  UNL1        0.0203
      2 C         142.5647  139.9721  166.8927 C.ar    1  UNL1        0.0310
      3 C         143.2744  139.6250  165.6177 C.ar    1  UNL1        0.1414
      4 F         144.3831  138.6147  165.6276 F       1  UNL1       -0.2041
      5 C         142.8755  140.2882  164.3327 C.ar    1  UNL1        0.0440
      6 C         141.7669  141.2986  164.3229 C.ar    1  UNL1        0.0488
      7 C         141.0571  141.6456  165.5980 C.ar    1  UNL1       -0.0067
      8 C         139.9484  142.6560  165.5882 C.3     1  UNL1        0.0324
      9 C         139.6705  140.4279  168.6870 C.ar    1  UNL1        0.1870
     10 C         138.9609  140.7750  169.9620 C.ar    1  UNL1        0.1629
     11 N         137.8851  139.8733  170.4910 N.pl3   1  UNL1       -0.3401
     12 N         139.3269  142.0237  170.7081 N.ar    1  UNL1       -0.2063
     13 C         140.4026  142.9253  170.1792 C.ar    1  UNL1        0.2002
     14 N         141.1123  142.5782  168.9041 N.ar    1  UNL1       -0.2208
     15 C         140.7463  141.3295  168.1580 C.ar    1  UNL1        0.1194
     16 H         137.6448  139.0537  170.0014 H       1  UNL1        0.1438
     17 H         137.4193  140.1011  171.3279 H       1  UNL1        0.1438
     18 O         139.3045  139.1791  167.9409 O.3     1  UNL1       -0.4693
     19 C         138.4844  139.2672  166.6880 C.3     1  UNL1        0.2270
     20 C         138.7556  138.3323  165.5468 C.3     1  UNL1        0.1410
     21 C         139.9532  138.2581  163.2424 C.2     1  UNL1        0.2493
     22 O         140.7823  137.0991  163.7106 O.2     1  UNL1       -0.2699
     23 N         138.9399  138.8747  164.1605 N.am    1  UNL1       -0.2705
     24 C         138.1107  140.0337  163.6923 C.3     1  UNL1        0.1153
     25 C         139.3313  138.2445  160.7198 C.2     1  UNL1        0.0048
     26 C         140.1374  138.8005  161.8560 C.2     1  UNL1        0.0580
     27 N         141.3679  141.9618  163.0380 N.am    1  UNL1       -0.2805
     28 C         142.1126  143.1711  162.5556 C.2     1  UNL1        0.2517
     29 O         143.2563  143.7173  163.3580 O.2     1  UNL1       -0.2697
     30 H         140.6173  141.6033  162.5114 H       1  UNL1        0.1552
     31 C         141.7137  143.8344  161.2706 C.ar    1  UNL1        0.0810
     32 C         142.4578  143.5266  160.0051 C.ar    1  UNL1        0.0065
     33 C         142.0589  144.1898  158.7203 C.ar    1  UNL1       -0.0040
     34 C         140.9159  145.1610  158.7010 C.ar    1  UNL1       -0.0203
     35 C         140.1718  145.4689  159.9664 C.ar    1  UNL1        0.0255
     36 C         140.5707  144.8056  161.2513 C.ar    1  UNL1        0.1441
     37 F         139.8266  145.1135  162.5169 F       1  UNL1       -0.2040
     38 C         140.5170  145.8243  157.4160 C.3     1  UNL1        0.0224
     39 C         140.5889  145.9073  155.9201 C.3     1  UNL1        0.0047
     40 C         139.7542  146.8901  156.6865 C.3     1  UNL1        0.0047
@<TRIPOS>BOND
     1    25    26    2
     2    26    21    1
     3    21    22    2
     4    21    23   am
     5    23    24    1
     6    23    20    1
     7    20    19    1
     8    19    18    1
     9    18     9    1
    10     9    10   ar
    11    10    11    1
    12    10    12   ar
    13    12    13   ar
    14    13    14   ar
    15    14    15   ar
    16    15     1    1
    17     1     2   ar
    18     2     3   ar
    19     3     4    1
    20     3     5   ar
    21     5     6   ar
    22     6    27    1
    23    27    28   am
    24    28    29    2
    25    28    31    1
    26    31    32   ar
    27    32    33   ar
    28    33    34   ar
    29    34    38    1
    30    38    39    1
    31    39    40    1
    32    34    35   ar
    33    35    36   ar
    34    36    37    1
    35     6     7   ar
    36     7     8    1
    37    15     9   ar
    38     7     1   ar
    39    36    31   ar
    40    40    38    1
    41    11    16    1
    42    11    17    1
    43    27    30    1
@<TRIPOS>MOLECULE
*****
 40 43 0 0 0
SMALL
GASTEIGER

@<TRIPOS>ATOM
      1 C         139.8403  140.9235  167.2269 C.ar    1  UNL1        0.0203
      2 C         139.2265  139.5551  167.2030 C.ar    1  UNL1        0.0310
      3 C         138.5877  139.0415  165.9468 C.ar    1  UNL1        0.1414
      4 F         137.9739  137.6730  165.9229 F       1  UNL1       -0.2041
      5 C         138.5627  139.8963  164.7144 C.ar    1  UNL1        0.0440
      6 C         139.1765  141.2647  164.7383 C.ar    1  UNL1        0.0488
      7 C         139.8153  141.7784  165.9946 C.ar    1  UNL1       -0.0067
      8 C         140.4291  143.1468  166.0185 C.3     1  UNL1        0.0324
      9 C         141.9519  141.2574  168.7033 C.ar    1  UNL1        0.1870
     10 C         142.5906  141.7710  169.9596 C.ar    1  UNL1        0.1629
     11 N         144.0635  141.5913  170.1797 N.pl3   1  UNL1       -0.3401
     12 N         141.7565  142.4644  170.9957 N.ar    1  UNL1       -0.2063
     13 C         140.2837  142.6441  170.7755 C.ar    1  UNL1        0.2002
     14 N         139.6450  142.1305  169.5193 N.ar    1  UNL1       -0.2208
     15 C         140.4791  141.4372  168.4832 C.ar    1  UNL1        0.1194
     16 H         144.6109  141.1362  169.4997 H       1  UNL1        0.1438
     17 H         144.4827  141.9284  171.0043 H       1  UNL1        0.1438
     18 O         142.7860  140.5640  167.6672 O.3     1  UNL1       -0.4693
     19 C         142.8217  139.0655  167.6130 C.3     1  UNL1        0.2270
     20 C         143.6128  138.3723  166.5436 C.3     1  UNL1        0.1410
     21 C         142.3680  138.1992  164.2697 C.2     1  UNL1        0.2493
     22 O         141.4253  137.1941  164.8623 O.2     1  UNL1       -0.2699
     23 N         143.4618  138.7882  165.1103 N.am    1  UNL1       -0.2705
     24 C         144.4045  139.7932  164.5177 C.3     1  UNL1        0.1153
     25 C         142.9781  137.8958  161.7625 C.2     1  UNL1        0.0048
     26 C         142.2170  138.6151  162.8364 C.2     1  UNL1        0.0580
     27 N         139.1516  142.1196  163.5060 N.am    1  UNL1       -0.2805
     28 C         140.3992  142.3002  162.6932 C.2     1  UNL1        0.2517
     29 O         141.6718  141.6260  163.1127 O.2     1  UNL1       -0.2697
     30 H         138.3163  142.5620  163.2306 H       1  UNL1        0.1552
     31 C         140.3743  143.1551  161.4608 C.ar    1  UNL1        0.0810
     32 C         139.6182  142.7003  160.2478 C.ar    1  UNL1        0.0065
     33 C         139.5933  143.5552  159.0155 C.ar    1  UNL1       -0.0040
     34 C         140.3245  144.8648  158.9962 C.ar    1  UNL1       -0.0203
     35 C         141.0806  145.3195  160.2093 C.ar    1  UNL1        0.0255
     36 C         141.1055  144.4646  161.4415 C.ar    1  UNL1        0.1441
     37 F         141.8616  144.9193  162.6547 F       1  UNL1       -0.2040
     38 C         140.2996  145.7196  157.7638 C.3     1  UNL1        0.0224
     39 C         139.6052  146.7255  156.8945 C.3     1  UNL1        0.0047
     40 C         140.9509  146.1943  156.4988 C.3     1  UNL1        0.0047
@<TRIPOS>BOND
     1    25    26    2
     2    26    21    1
     3    21    22    2
     4    21    23   am
     5    23    24    1
     6    23    20    1
     7    20    19    1
     8    19    18    1
     9    18     9    1
    10     9    10   ar
    11    10    11    1
    12    10    12   ar
    13    12    13   ar
    14    13    14   ar
    15    14    15   ar
    16    15     1    1
    17     1     2   ar
    18     2     3   ar
    19     3     4    1
    20     3     5   ar
    21     5     6   ar
    22     6    27    1
    23    27    28   am
    24    28    29    2
    25    28    31    1
    26    31    32   ar
    27    32    33   ar
    28    33    34   ar
    29    34    38    1
    30    38    39    1
    31    39    40    1
    32    34    35   ar
    33    35    36   ar
    34    36    37    1
    35     6     7   ar
    36     7     8    1
    37    15     9   ar
    38     7     1   ar
    39    36    31   ar
    40    40    38    1
    41    11    16    1
    42    11    17    1
    43    27    30    1
@<TRIPOS>MOLECULE
*****
 40 43 0 0 0
SMALL
GASTEIGER

@<TRIPOS>ATOM
      1 C         142.9951  139.2808  158.3898 C.ar    1  UNL1        0.0203
      2 C         143.4956  140.5348  157.7364 C.ar    1  UNL1        0.0310
      3 C         144.0517  141.6470  158.5752 C.ar    1  UNL1        0.1414
      4 F         144.5521  142.9010  157.9217 F       1  UNL1       -0.2041
      5 C         144.1073  141.5054  160.0675 C.ar    1  UNL1        0.0440
      6 C         143.6068  140.2514  160.7209 C.ar    1  UNL1        0.0488
      7 C         143.0507  139.1390  159.8821 C.ar    1  UNL1       -0.0067
      8 C         142.5502  137.8850  160.5355 C.3     1  UNL1        0.0324
      9 C         140.9767  138.1390  157.2183 C.ar    1  UNL1        0.1870
     10 C         140.4207  137.0267  156.3795 C.ar    1  UNL1        0.1629
     11 N         138.9584  136.9972  156.0467 N.pl3   1  UNL1       -0.3401
     12 N         141.3270  135.9439  155.8734 N.ar    1  UNL1       -0.2063
     13 C         142.7894  135.9734  156.2061 C.ar    1  UNL1        0.2002
     14 N         143.3454  137.0856  157.0449 N.ar    1  UNL1       -0.2208
     15 C         142.4390  138.1684  157.5510 C.ar    1  UNL1        0.1194
     16 H         138.3635  137.7078  156.3789 H       1  UNL1        0.1438
     17 H         138.5934  136.2671  155.4962 H       1  UNL1        0.1438
     18 O         140.0704  139.2218  157.7244 O.3     1  UNL1       -0.4693
     19 C         139.3738  139.0613  159.0430 C.3     1  UNL1        0.2270
     20 C         138.4511  140.1347  159.5394 C.3     1  UNL1        0.1410
     21 C         137.8016  141.4473  161.6854 C.2     1  UNL1        0.2493
     22 O         138.0258  142.7418  160.9615 O.2     1  UNL1       -0.2699
     23 N         138.0143  140.1438  160.9744 N.am    1  UNL1       -0.2705
     24 C         137.7901  138.8493  161.6983 C.3     1  UNL1        0.1153
     25 C         138.2918  141.9671  164.1833 C.2     1  UNL1        0.0048
     26 C         137.3648  141.4564  163.1204 C.2     1  UNL1        0.0580
     27 N         143.6623  140.1096  162.2132 N.am    1  UNL1       -0.2805
     28 C         142.4317  140.3519  163.0358 C.2     1  UNL1        0.2517
     29 O         141.1456  140.7359  162.3663 O.2     1  UNL1       -0.2697
     30 H         144.5065  139.8576  162.6526 H       1  UNL1        0.1552
     31 C         142.4873  140.2102  164.5281 C.ar    1  UNL1        0.0810
     32 C         143.0027  138.9426  165.1425 C.ar    1  UNL1        0.0065
     33 C         143.0582  138.8009  166.6347 C.ar    1  UNL1       -0.0040
     34 C         142.5983  139.9269  167.5126 C.ar    1  UNL1       -0.0203
     35 C         142.0828  141.1945  166.8983 C.ar    1  UNL1        0.0255
     36 C         142.0273  141.3362  165.4060 C.ar    1  UNL1        0.1441
     37 F         141.5119  142.6038  164.7916 F       1  UNL1       -0.2040
     38 C         142.6538  139.7852  169.0049 C.3     1  UNL1        0.0224
     39 C         142.3706  138.9916  170.2458 C.3     1  UNL1        0.0047
     40 C         143.0332  140.3333  170.3487 C.3     1  UNL1        0.0047
@<TRIPOS>BOND
     1    25    26    2
     2    26    21    1
     3    21    22    2
     4    21    23   am
     5    23    24    1
     6    23    20    1
     7    20    19    1
     8    19    18    1
     9    18     9    1
    10     9    10   ar
    11    10    11    1
    12    10    12   ar
    13    12    13   ar
    14    13    14   ar
    15    14    15   ar
    16    15     1    1
    17     1     2   ar
    18     2     3   ar
    19     3     4    1
    20     3     5   ar
    21     5     6   ar
    22     6    27    1
    23    27    28   am
    24    28    29    2
    25    28    31    1
    26    31    32   ar
    27    32    33   ar
    28    33    34   ar
    29    34    38    1
    30    38    39    1
    31    39    40    1
    32    34    35   ar
    33    35    36   ar
    34    36    37    1
    35     6     7   ar
    36     7     8    1
    37    15     9   ar
    38     7     1   ar
    39    36    31   ar
    40    40    38    1
    41    11    16    1
    42    11    17    1
    43    27    30    1
@<TRIPOS>MOLECULE
*****
 40 43 0 0 0
SMALL
GASTEIGER

@<TRIPOS>ATOM
      1 C         142.0258  141.3924  161.0746 C.ar    1  UNL1        0.0203
      2 C         143.1124  141.2114  162.0928 C.ar    1  UNL1        0.0310
      3 C         143.9209  139.9481  162.1103 C.ar    1  UNL1        0.1414
      4 F         145.0074  139.7671  163.1285 F       1  UNL1       -0.2041
      5 C         143.6429  138.8658  161.1095 C.ar    1  UNL1        0.0440
      6 C         142.5564  139.0468  160.0914 C.ar    1  UNL1        0.0488
      7 C         141.7479  140.3102  160.0739 C.ar    1  UNL1       -0.0067
      8 C         140.6613  140.4913  159.0557 C.3     1  UNL1        0.0324
      9 C         139.8985  142.7121  161.7695 C.ar    1  UNL1        0.1870
     10 C         139.0900  143.9754  161.7521 C.ar    1  UNL1        0.1629
     11 N         137.7711  144.0317  162.4644 N.pl3   1  UNL1       -0.3401
     12 N         139.6003  145.1824  161.0223 N.ar    1  UNL1       -0.2063
     13 C         140.9192  145.1261  160.3099 C.ar    1  UNL1        0.2002
     14 N         141.7276  143.8628  160.3274 N.ar    1  UNL1       -0.2208
     15 C         141.2173  142.6558  161.0572 C.ar    1  UNL1        0.1194
     16 H         137.4361  143.2395  162.9434 H       1  UNL1        0.1438
     17 H         137.2404  144.8609  162.4530 H       1  UNL1        0.1438
     18 O         139.3881  141.5051  162.4993 O.3     1  UNL1       -0.4693
     19 C         138.3852  140.6016  161.8453 C.3     1  UNL1        0.2270
     20 C         138.0547  139.2756  162.4637 C.3     1  UNL1        0.1410
     21 C         140.0962  137.8283  163.1621 C.2     1  UNL1        0.2493
     22 O         140.3710  137.5199  161.7201 O.2     1  UNL1       -0.2699
     23 N         138.9381  138.7061  163.5339 N.am    1  UNL1       -0.2705
     24 C         138.6634  139.0145  164.9759 C.3     1  UNL1        0.1153
     25 C         142.1527  138.0472  164.7347 C.2     1  UNL1        0.0048
     26 C         140.9797  137.2589  164.2324 C.2     1  UNL1        0.0580
     27 N         142.2784  137.9646  159.0907 N.am    1  UNL1       -0.2805
     28 C         142.8653  138.0485  157.7128 C.2     1  UNL1        0.2517
     29 O         143.7301  139.2146  157.3357 O.2     1  UNL1       -0.2697
     30 H         141.7108  137.1993  159.3382 H       1  UNL1        0.1552
     31 C         142.5873  136.9662  156.7120 C.ar    1  UNL1        0.0810
     32 C         143.7234  136.2064  156.0940 C.ar    1  UNL1        0.0065
     33 C         143.4453  135.1242  155.0933 C.ar    1  UNL1       -0.0040
     34 C         142.0313  134.8018  154.7106 C.ar    1  UNL1       -0.0203
     35 C         140.8952  135.5617  155.3285 C.ar    1  UNL1        0.0255
     36 C         141.1732  136.6439  156.3293 C.ar    1  UNL1        0.1441
     37 F         140.0371  137.4038  156.9473 F       1  UNL1       -0.2040
     38 C         141.7533  133.7196  153.7098 C.3     1  UNL1        0.0224
     39 C         141.1732  132.3774  153.3753 C.3     1  UNL1        0.0047
     40 C         141.8520  133.1873  152.3108 C.3     1  UNL1        0.0047
@<TRIPOS>BOND
     1    25    26    2
     2    26    21    1
     3    21    22    2
     4    21    23   am
     5    23    24    1
     6    23    20    1
     7    20    19    1
     8    19    18    1
     9    18     9    1
    10     9    10   ar
    11    10    11    1
    12    10    12   ar
    13    12    13   ar
    14    13    14   ar
    15    14    15   ar
    16    15     1    1
    17     1     2   ar
    18     2     3   ar
    19     3     4    1
    20     3     5   ar
    21     5     6   ar
    22     6    27    1
    23    27    28   am
    24    28    29    2
    25    28    31    1
    26    31    32   ar
    27    32    33   ar
    28    33    34   ar
    29    34    38    1
    30    38    39    1
    31    39    40    1
    32    34    35   ar
    33    35    36   ar
    34    36    37    1
    35     6     7   ar
    36     7     8    1
    37    15     9   ar
    38     7     1   ar
    39    36    31   ar
    40    40    38    1
    41    11    16    1
    42    11    17    1
    43    27    30    1
@<TRIPOS>MOLECULE
*****
 40 43 0 0 0
SMALL
GASTEIGER

@<TRIPOS>ATOM
      1 C         140.8029  142.3196  166.5872 C.ar    1  UNL1        0.0203
      2 C         139.9446  143.5494  166.6213 C.ar    1  UNL1        0.0310
      3 C         139.3743  144.1014  165.3485 C.ar    1  UNL1        0.1414
      4 F         138.5160  145.3311  165.3825 F       1  UNL1       -0.2041
      5 C         139.6622  143.4236  164.0416 C.ar    1  UNL1        0.0440
      6 C         140.5205  142.1939  164.0076 C.ar    1  UNL1        0.0488
      7 C         141.0908  141.6419  165.2805 C.ar    1  UNL1       -0.0067
      8 C         141.9491  140.4122  165.2465 C.3     1  UNL1        0.0324
      9 C         140.5608  140.8274  168.7003 C.ar    1  UNL1        0.1870
     10 C         141.1311  140.2755  169.9730 C.ar    1  UNL1        0.1629
     11 N         140.3187  139.3352  170.8133 N.pl3   1  UNL1       -0.3401
     12 N         142.5139  140.6638  170.4057 N.ar    1  UNL1       -0.2063
     13 C         143.3263  141.6040  169.5655 C.ar    1  UNL1        0.2002
     14 N         142.7560  142.1559  168.2928 N.ar    1  UNL1       -0.2208
     15 C         141.3732  141.7676  167.8601 C.ar    1  UNL1        0.1194
     16 H         139.4111  139.0803  170.5293 H       1  UNL1        0.1438
     17 H         140.6930  138.9729  171.6486 H       1  UNL1        0.1438
     18 O         139.1780  140.4391  168.2676 O.3     1  UNL1       -0.4693
     19 C         138.9832  139.2974  167.3145 C.3     1  UNL1        0.2270
     20 C         138.3621  139.5398  165.9708 C.3     1  UNL1        0.1410
     21 C         138.3830  139.0634  163.4168 C.2     1  UNL1        0.2493
     22 O         137.7631  140.4052  163.1615 O.2     1  UNL1       -0.2699
     23 N         138.6825  138.6306  164.8215 N.am    1  UNL1       -0.2705
     24 C         139.3024  137.2888  165.0768 C.3     1  UNL1        0.1153
     25 C         140.0378  138.2453  161.5886 C.2     1  UNL1        0.0048
     26 C         138.7034  138.1543  162.2675 C.2     1  UNL1        0.0580
     27 N         140.8084  141.5162  162.7008 N.am    1  UNL1       -0.2805
     28 C         142.0194  141.9045  161.9054 C.2     1  UNL1        0.2517
     29 O         142.9424  142.9706  162.4168 O.2     1  UNL1       -0.2697
     30 H         140.2026  140.8165  162.3652 H       1  UNL1        0.1552
     31 C         142.3074  141.2268  160.5986 C.ar    1  UNL1        0.0810
     32 C         141.7264  141.7711  159.3273 C.ar    1  UNL1        0.0065
     33 C         142.0144  141.0934  158.0206 C.ar    1  UNL1       -0.0040
     34 C         142.8834  139.8713  157.9850 C.ar    1  UNL1       -0.0203
     35 C         143.4644  139.3269  159.2563 C.ar    1  UNL1        0.0255
     36 C         143.1764  140.0046  160.5630 C.ar    1  UNL1        0.1441
     37 F         143.7574  139.4603  161.8344 F       1  UNL1       -0.2040
     38 C         143.1715  139.1936  156.6782 C.3     1  UNL1        0.0224
     39 C         144.1310  138.8457  155.5790 C.3     1  UNL1        0.0047
     40 C         142.7108  138.3675  155.5139 C.3     1  UNL1        0.0047
@<TRIPOS>BOND
     1    25    26    2
     2    26    21    1
     3    21    22    2
     4    21    23   am
     5    23    24    1
     6    23    20    1
     7    20    19    1
     8    19    18    1
     9    18     9    1
    10     9    10   ar
    11    10    11    1
    12    10    12   ar
    13    12    13   ar
    14    13    14   ar
    15    14    15   ar
    16    15     1    1
    17     1     2   ar
    18     2     3   ar
    19     3     4    1
    20     3     5   ar
    21     5     6   ar
    22     6    27    1
    23    27    28   am
    24    28    29    2
    25    28    31    1
    26    31    32   ar
    27    32    33   ar
    28    33    34   ar
    29    34    38    1
    30    38    39    1
    31    39    40    1
    32    34    35   ar
    33    35    36   ar
    34    36    37    1
    35     6     7   ar
    36     7     8    1
    37    15     9   ar
    38     7     1   ar
    39    36    31   ar
    40    40    38    1
    41    11    16    1
    42    11    17    1
    43    27    30    1
@<TRIPOS>MOLECULE
*****
 40 43 0 0 0
SMALL
GASTEIGER

@<TRIPOS>ATOM
      1 C         142.9561  143.0517  158.9622 C.ar    1  UNL1        0.0203
      2 C         142.0280  144.0517  158.3389 C.ar    1  UNL1        0.0310
      3 C         141.2122  144.9617  159.2087 C.ar    1  UNL1        0.1414
      4 F         140.2840  145.9617  158.5854 F       1  UNL1       -0.2041
      5 C         141.3246  144.8716  160.7018 C.ar    1  UNL1        0.0440
      6 C         142.2528  143.8716  161.3251 C.ar    1  UNL1        0.0488
      7 C         143.0685  142.9616  160.4552 C.ar    1  UNL1       -0.0067
      8 C         143.9967  141.9616  161.0785 C.3     1  UNL1        0.0324
      9 C         143.2496  140.7830  157.7305 C.ar    1  UNL1        0.1870
     10 C         144.0653  139.8731  156.8607 C.ar    1  UNL1        0.1629
     11 N         143.5430  138.5143  156.4989 N.pl3   1  UNL1       -0.3401
     12 N         145.4034  140.3220  156.3527 N.ar    1  UNL1       -0.2063
     13 C         145.9257  141.6807  156.7145 C.ar    1  UNL1        0.2002
     14 N         145.1100  142.5906  157.5843 N.ar    1  UNL1       -0.2208
     15 C         143.7719  142.1417  158.0923 C.ar    1  UNL1        0.1194
     16 H         142.6648  138.2197  156.8323 H       1  UNL1        0.1438
     17 H         144.0784  137.9171  155.9280 H       1  UNL1        0.1438
     18 O         141.9115  140.3341  158.2386 O.3     1  UNL1       -0.4693
     19 C         141.8219  139.5083  159.4875 C.3     1  UNL1        0.2270
     20 C         140.7588  138.4582  159.6177 C.3     1  UNL1        0.1410
     21 C         139.8262  137.9610  161.9911 C.2     1  UNL1        0.2493
     22 O         141.0559  137.1622  162.3070 O.2     1  UNL1       -0.2699
     23 N         139.6776  138.6090  160.6465 N.am    1  UNL1       -0.2705
     24 C         138.4479  139.4077  160.3306 C.3     1  UNL1        0.1153
     25 C         139.0327  137.8081  164.4604 C.2     1  UNL1        0.0048
     26 C         138.7450  138.1118  163.0199 C.2     1  UNL1        0.0580
     27 N         142.3652  143.7815  162.8181 N.am    1  UNL1       -0.2805
     28 C         141.5781  142.7484  163.5685 C.2     1  UNL1        0.2517
     29 O         140.6786  141.8053  162.8258 O.2     1  UNL1       -0.2697
     30 H         142.9556  144.4005  163.3055 H       1  UNL1        0.1552
     31 C         141.6905  142.6582  165.0616 C.ar    1  UNL1        0.0810
     32 C         143.0208  142.3847  165.6984 C.ar    1  UNL1        0.0065
     33 C         143.1331  142.2946  167.1914 C.ar    1  UNL1       -0.0040
     34 C         141.9152  142.4780  168.0477 C.ar    1  UNL1       -0.0203
     35 C         140.5850  142.7516  167.4108 C.ar    1  UNL1        0.0255
     36 C         140.4726  142.8417  165.9178 C.ar    1  UNL1        0.1441
     37 F         139.1424  143.1153  165.2809 F       1  UNL1       -0.2040
     38 C         142.0276  142.3879  169.5408 C.3     1  UNL1        0.0224
     39 C         142.5925  142.8963  170.8340 C.3     1  UNL1        0.0047
     40 C         141.6574  141.7234  170.8336 C.3     1  UNL1        0.0047
@<TRIPOS>BOND
     1    25    26    2
     2    26    21    1
     3    21    22    2
     4    21    23   am
     5    23    24    1
     6    23    20    1
     7    20    19    1
     8    19    18    1
     9    18     9    1
    10     9    10   ar
    11    10    11    1
    12    10    12   ar
    13    12    13   ar
    14    13    14   ar
    15    14    15   ar
    16    15     1    1
    17     1     2   ar
    18     2     3   ar
    19     3     4    1
    20     3     5   ar
    21     5     6   ar
    22     6    27    1
    23    27    28   am
    24    28    29    2
    25    28    31    1
    26    31    32   ar
    27    32    33   ar
    28    33    34   ar
    29    34    38    1
    30    38    39    1
    31    39    40    1
    32    34    35   ar
    33    35    36   ar
    34    36    37    1
    35     6     7   ar
    36     7     8    1
    37    15     9   ar
    38     7     1   ar
    39    36    31   ar
    40    40    38    1
    41    11    16    1
    42    11    17    1
    43    27    30    1
@<TRIPOS>MOLECULE
*****
 40 43 0 0 0
SMALL
GASTEIGER

@<TRIPOS>ATOM
      1 C         141.7069  144.1874  158.1526 C.ar    1  UNL1        0.0203
      2 C         142.9092  143.4549  157.6351 C.ar    1  UNL1        0.0310
      3 C         143.8649  142.8100  158.5946 C.ar    1  UNL1        0.1414
      4 F         145.0673  142.0775  158.0771 F       1  UNL1       -0.2041
      5 C         143.6184  142.8976  160.0716 C.ar    1  UNL1        0.0440
      6 C         142.4160  143.6301  160.5891 C.ar    1  UNL1        0.0488
      7 C         141.4603  144.2751  159.6296 C.ar    1  UNL1       -0.0067
      8 C         140.2579  145.0076  160.1471 C.3     1  UNL1        0.0324
      9 C         139.5744  144.0605  156.6739 C.ar    1  UNL1        0.1870
     10 C         138.6187  144.7054  155.7144 C.ar    1  UNL1        0.1629
     11 N         137.4419  143.9335  155.1951 N.pl3   1  UNL1       -0.3401
     12 N         138.8397  146.1222  155.2740 N.ar    1  UNL1       -0.2063
     13 C         140.0164  146.8940  155.7932 C.ar    1  UNL1        0.2002
     14 N         140.9721  146.2491  156.7527 N.ar    1  UNL1       -0.2208
     15 C         140.7511  144.8323  157.1930 C.ar    1  UNL1        0.1194
     16 H         137.2969  143.0036  155.4841 H       1  UNL1        0.1438
     17 H         136.8147  144.3568  154.5654 H       1  UNL1        0.1438
     18 O         139.3534  142.6437  157.1142 O.3     1  UNL1       -0.4693
     19 C         138.2769  142.3269  158.1095 C.3     1  UNL1        0.2270
     20 C         138.6430  141.9170  159.5052 C.3     1  UNL1        0.1410
     21 C         137.8169  140.1416  161.2127 C.2     1  UNL1        0.2493
     22 O         137.2619  141.2331  162.0791 O.2     1  UNL1       -0.2699
     23 N         138.5074  140.4835  159.9258 N.am    1  UNL1       -0.2705
     24 C         139.0624  139.3920  159.0595 C.3     1  UNL1        0.1153
     25 C         138.6907  138.1001  162.5614 C.2     1  UNL1        0.0048
     26 C         137.6813  138.7081  161.6333 C.2     1  UNL1        0.0580
     27 N         142.1695  143.7178  162.0661 N.am    1  UNL1       -0.2805
     28 C         141.5024  142.5820  162.7837 C.2     1  UNL1        0.2517
     29 O         141.0819  141.3587  162.0244 O.2     1  UNL1       -0.2697
     30 H         142.4454  144.5207  162.5644 H       1  UNL1        0.1552
     31 C         141.2557  142.6696  164.2608 C.ar    1  UNL1        0.0810
     32 C         142.2751  142.1379  165.2242 C.ar    1  UNL1        0.0065
     33 C         142.0284  142.2255  166.7011 C.ar    1  UNL1       -0.0040
     34 C         140.7624  142.8448  167.2147 C.ar    1  UNL1       -0.0203
     35 C         139.7431  143.3766  166.2513 C.ar    1  UNL1        0.0255
     36 C         139.9898  143.2890  164.7743 C.ar    1  UNL1        0.1441
     37 F         138.9704  143.8207  163.8108 F       1  UNL1       -0.2040
     38 C         140.5158  142.9324  168.6917 C.3     1  UNL1        0.0224
     39 C         140.4219  143.7483  169.9469 C.3     1  UNL1        0.0047
     40 C         140.1826  142.2683  169.9947 C.3     1  UNL1        0.0047
@<TRIPOS>BOND
     1    25    26    2
     2    26    21    1
     3    21    22    2
     4    21    23   am
     5    23    24    1
     6    23    20    1
     7    20    19    1
     8    19    18    1
     9    18     9    1
    10     9    10   ar
    11    10    11    1
    12    10    12   ar
    13    12    13   ar
    14    13    14   ar
    15    14    15   ar
    16    15     1    1
    17     1     2   ar
    18     2     3   ar
    19     3     4    1
    20     3     5   ar
    21     5     6   ar
    22     6    27    1
    23    27    28   am
    24    28    29    2
    25    28    31    1
    26    31    32   ar
    27    32    33   ar
    28    33    34   ar
    29    34    38    1
    30    38    39    1
    31    39    40    1
    32    34    35   ar
    33    35    36   ar
    34    36    37    1
    35     6     7   ar
    36     7     8    1
    37    15     9   ar
    38     7     1   ar
    39    36    31   ar
    40    40    38    1
    41    11    16    1
    42    11    17    1
    43    27    30    1
@<TRIPOS>MOLECULE
*****
 40 43 0 0 0
SMALL
GASTEIGER

@<TRIPOS>ATOM
      1 C         141.3650  138.6218  158.5701 C.ar    1  UNL1        0.0203
      2 C         140.0173  139.1250  158.1451 C.ar    1  UNL1        0.0310
      3 C         138.9919  139.4868  159.1783 C.ar    1  UNL1        0.1414
      4 F         137.6442  139.9899  158.7534 F       1  UNL1       -0.2041
      5 C         139.3141  139.3454  160.6365 C.ar    1  UNL1        0.0440
      6 C         140.6618  138.8423  161.0614 C.ar    1  UNL1        0.0488
      7 C         141.6872  138.4805  160.0282 C.ar    1  UNL1       -0.0067
      8 C         143.0349  137.9773  160.4531 C.3     1  UNL1        0.0324
      9 C         143.3136  139.3114  156.9961 C.ar    1  UNL1        0.1870
     10 C         144.3391  138.9496  155.9629 C.ar    1  UNL1        0.1629
     11 N         145.2623  140.0009  155.4221 N.pl3   1  UNL1       -0.3401
     12 N         144.4413  137.5364  155.4704 N.ar    1  UNL1       -0.2063
     13 C         143.5181  136.4851  156.0111 C.ar    1  UNL1        0.2002
     14 N         142.4927  136.8469  157.0443 N.ar    1  UNL1       -0.2208
     15 C         142.3905  138.2600  157.5368 C.ar    1  UNL1        0.1194
     16 H         145.1952  140.9284  155.7453 H       1  UNL1        0.1438
     17 H         145.9353  139.7634  154.7439 H       1  UNL1        0.1438
     18 O         143.2114  140.7245  157.4886 O.3     1  UNL1       -0.4693
     19 C         143.9568  141.1453  158.7204 C.3     1  UNL1        0.2270
     20 C         143.2478  141.9020  159.8042 C.3     1  UNL1        0.1410
     21 C         143.7339  143.2715  161.9579 C.2     1  UNL1        0.2493
     22 O         143.0031  144.4453  161.3764 O.2     1  UNL1       -0.2699
     23 N         143.8562  141.9999  161.1718 N.am    1  UNL1       -0.2705
     24 C         144.5870  140.8260  161.7533 C.3     1  UNL1        0.1153
     25 C         143.5101  143.0783  164.5391 C.2     1  UNL1        0.0048
     26 C         144.3423  143.3693  163.3255 C.2     1  UNL1        0.0580
     27 N         140.9840  138.7009  162.5196 N.am    1  UNL1       -0.2805
     28 C         141.1802  139.9234  163.3662 C.2     1  UNL1        0.2517
     29 O         141.0541  141.2873  162.7547 O.2     1  UNL1       -0.2697
     30 H         141.0667  137.8057  162.9209 H       1  UNL1        0.1552
     31 C         141.5024  139.7821  164.8244 C.ar    1  UNL1        0.0810
     32 C         140.5448  140.2975  165.8575 C.ar    1  UNL1        0.0065
     33 C         140.8671  140.1562  167.3156 C.ar    1  UNL1       -0.0040
     34 C         142.1470  139.4995  167.7406 C.ar    1  UNL1       -0.0203
     35 C         143.1046  138.9841  166.7075 C.ar    1  UNL1        0.0255
     36 C         142.7823  139.1254  165.2494 C.ar    1  UNL1        0.1441
     37 F         143.7400  138.6100  164.2162 F       1  UNL1       -0.2040
     38 C         142.4693  139.3581  169.1988 C.3     1  UNL1        0.0224
     39 C         142.7321  139.9817  170.5374 C.3     1  UNL1        0.0047
     40 C         142.7646  138.4898  170.3857 C.3     1  UNL1        0.0047
@<TRIPOS>BOND
     1    25    26    2
     2    26    21    1
     3    21    22    2
     4    21    23   am
     5    23    24    1
     6    23    20    1
     7    20    19    1
     8    19    18    1
     9    18     9    1
    10     9    10   ar
    11    10    11    1
    12    10    12   ar
    13    12    13   ar
    14    13    14   ar
    15    14    15   ar
    16    15     1    1
    17     1     2   ar
    18     2     3   ar
    19     3     4    1
    20     3     5   ar
    21     5     6   ar
    22     6    27    1
    23    27    28   am
    24    28    29    2
    25    28    31    1
    26    31    32   ar
    27    32    33   ar
    28    33    34   ar
    29    34    38    1
    30    38    39    1
    31    39    40    1
    32    34    35   ar
    33    35    36   ar
    34    36    37    1
    35     6     7   ar
    36     7     8    1
    37    15     9   ar
    38     7     1   ar
    39    36    31   ar
    40    40    38    1
    41    11    16    1
    42    11    17    1
    43    27    30    1
