@<TRIPOS>MOLECULE
*****
 31 35 0 0 0
SMALL
GASTEIGER

@<TRIPOS>ATOM
      1 C         142.2513  138.6178  158.4601 C.ar    1  UNL1        0.1035
      2 C         142.4704  139.9399  157.7862 C.ar    1  UNL1        0.1197
      3 N         143.1589  139.6849  156.4782 N.ar    1  UNL1       -0.2234
      4 C         143.3654  138.2053  156.3437 C.ar    1  UNL1        0.1639
      5 C         143.9917  137.3733  155.2641 C.ar    1  UNL1        0.0404
      6 C         144.0571  135.8818  155.4094 C.ar    1  UNL1        0.0240
      7 C         143.4962  135.2223  156.6344 C.ar    1  UNL1        0.1015
      8 N         142.8699  136.0543  157.7139 N.ar    1  UNL1       -0.1638
      9 N         142.8045  137.5458  157.5686 N.ar    1  UNL1       -0.2107
     10 C         140.2807  137.9796  162.4551 C.ar    1  UNL1        0.1057
     11 C         141.7696  137.8533  162.3245 C.ar    1  UNL1        0.0184
     12 C         142.4265  138.0660  160.9928 C.ar    1  UNL1        0.0029
     13 C         141.5945  138.4051  159.7918 C.ar    1  UNL1        0.0194
     14 C         140.1055  138.5315  159.9223 C.ar    1  UNL1        0.0029
     15 C         139.4486  138.3188  161.2540 C.ar    1  UNL1        0.0184
     16 C         138.9669  137.5543  165.1183 C.3     1  UNL1        0.1816
     17 S         139.6238  137.7669  163.7867 S.O2    1  UNL1        0.0104
     18 O         138.3952  138.4718  163.2932 O.2     1  UNL1       -0.1686
     19 O         140.8525  137.0620  164.2802 O.2     1  UNL1       -0.1686
     20 C         143.5616  133.7308  156.7797 C.ar    1  UNL1        0.0206
     21 C         144.5946  133.1087  157.6718 C.ar    1  UNL1        0.0016
     22 C         144.6600  131.6172  157.8171 C.ar    1  UNL1        0.0014
     23 C         143.6924  130.7477  157.0702 C.ar    1  UNL1        0.0183
     24 C         142.6594  131.3698  156.1781 C.ar    1  UNL1        0.1056
     25 C         142.5940  132.8613  156.0328 C.ar    1  UNL1        0.0199
     26 S         141.6917  130.5004  155.4312 S.O2    1  UNL1        0.0070
     27 O         140.9753  131.7221  154.9372 O.2     1  UNL1       -0.1687
     28 O         142.4082  129.2787  155.9252 O.2     1  UNL1       -0.1687
     29 C         140.7241  129.6310  154.6844 C.3     1  UNL1        0.1339
     30 C         139.9516  129.3216  153.4364 C.3     1  UNL1        0.0257
     31 C         139.8207  128.4344  154.6388 C.3     1  UNL1        0.0257
@<TRIPOS>BOND
     1    16    17    1
     2    17    18    2
     3    17    19    2
     4    17    10    1
     5    10    11   ar
     6    11    12   ar
     7    12    13   ar
     8    13     1    1
     9     1     2   ar
    10     2     3   ar
    11     3     4   ar
    12     4     5   ar
    13     5     6   ar
    14     6     7   ar
    15     7    20    1
    16    20    21   ar
    17    21    22   ar
    18    22    23   ar
    19    23    24   ar
    20    24    26    1
    21    26    27    2
    22    26    28    2
    23    26    29    1
    24    29    30    1
    25    30    31    1
    26    24    25   ar
    27     7     8   ar
    28     8     9   ar
    29    13    14   ar
    30    14    15   ar
    31    15    10   ar
    32     9     1   ar
    33     9     4   ar
    34    25    20   ar
    35    31    29    1
@<TRIPOS>MOLECULE
*****
 31 35 0 0 0
SMALL
GASTEIGER

@<TRIPOS>ATOM
      1 C         140.9822  138.5326  164.5018 C.ar    1  UNL1        0.1035
      2 C         141.0678  137.0713  164.1740 C.ar    1  UNL1        0.1197
      3 N         141.0286  136.9281  162.6814 N.ar    1  UNL1       -0.2234
      4 C         140.9189  138.3008  162.0867 C.ar    1  UNL1        0.1639
      5 C         140.8413  138.7759  160.6661 C.ar    1  UNL1        0.0404
      6 C         140.7351  140.2426  160.3705 C.ar    1  UNL1        0.0240
      7 C         140.7065  141.2343  161.4956 C.ar    1  UNL1        0.1015
      8 N         140.7840  140.7592  162.9163 N.ar    1  UNL1       -0.1638
      9 N         140.8902  139.2925  163.2118 N.ar    1  UNL1       -0.2107
     10 C         140.9987  140.3226  168.6305 C.ar    1  UNL1        0.1057
     11 C         142.2893  139.9119  167.9859 C.ar    1  UNL1        0.0184
     12 C         142.2838  139.3152  166.6097 C.ar    1  UNL1        0.0029
     13 C         140.9877  139.1293  165.8780 C.ar    1  UNL1        0.0194
     14 C         139.6970  139.5401  166.5226 C.ar    1  UNL1        0.0029
     15 C         139.7025  140.1367  167.8988 C.ar    1  UNL1        0.0184
     16 C         141.0096  141.5159  171.3829 C.3     1  UNL1        0.1816
     17 S         141.0042  140.9193  170.0067 S.O2    1  UNL1        0.0104
     18 O         140.1269  139.8042  170.4936 O.2     1  UNL1       -0.1686
     19 O         141.8815  142.0343  169.5197 O.2     1  UNL1       -0.1686
     20 C         140.6003  142.7011  161.2000 C.ar    1  UNL1        0.0206
     21 C         140.3324  143.6726  162.3110 C.ar    1  UNL1        0.0016
     22 C         140.2262  145.1394  162.0154 C.ar    1  UNL1        0.0014
     23 C         140.3879  145.6346  160.6088 C.ar    1  UNL1        0.0183
     24 C         140.6558  144.6630  159.4978 C.ar    1  UNL1        0.1056
     25 C         140.7620  143.1963  159.7934 C.ar    1  UNL1        0.0199
     26 S         140.8175  145.1582  158.0911 S.O2    1  UNL1        0.0070
     27 O         142.0456  145.9166  158.4993 O.2     1  UNL1       -0.1687
     28 O         139.5894  144.3998  157.6830 O.2     1  UNL1       -0.1687
     29 C         140.9793  145.6534  156.6845 C.3     1  UNL1        0.1339
     30 C         141.6569  145.5727  155.3488 C.3     1  UNL1        0.0257
     31 C         140.5817  146.5918  155.5839 C.3     1  UNL1        0.0257
@<TRIPOS>BOND
     1    16    17    1
     2    17    18    2
     3    17    19    2
     4    17    10    1
     5    10    11   ar
     6    11    12   ar
     7    12    13   ar
     8    13     1    1
     9     1     2   ar
    10     2     3   ar
    11     3     4   ar
    12     4     5   ar
    13     5     6   ar
    14     6     7   ar
    15     7    20    1
    16    20    21   ar
    17    21    22   ar
    18    22    23   ar
    19    23    24   ar
    20    24    26    1
    21    26    27    2
    22    26    28    2
    23    26    29    1
    24    29    30    1
    25    30    31    1
    26    24    25   ar
    27     7     8   ar
    28     8     9   ar
    29    13    14   ar
    30    14    15   ar
    31    15    10   ar
    32     9     1   ar
    33     9     4   ar
    34    25    20   ar
    35    31    29    1
@<TRIPOS>MOLECULE
*****
 31 35 0 0 0
SMALL
GASTEIGER

@<TRIPOS>ATOM
      1 C         140.4853  143.2446  160.2447 C.ar    1  UNL1        0.1035
      2 C         140.3869  144.6337  159.6872 C.ar    1  UNL1        0.1197
      3 N         139.8240  145.5232  160.7558 N.ar    1  UNL1       -0.2234
      4 C         139.5745  144.6840  161.9737 C.ar    1  UNL1        0.1639
      5 C         139.0280  145.0201  163.3295 C.ar    1  UNL1        0.0404
      6 C         138.8902  143.9480  164.3695 C.ar    1  UNL1        0.0240
      7 C         139.2989  142.5398  164.0537 C.ar    1  UNL1        0.1015
      8 N         139.8454  142.2036  162.6978 N.ar    1  UNL1       -0.1638
      9 N         139.9832  143.2757  161.6579 N.ar    1  UNL1       -0.2107
     10 C         142.0176  139.6204  158.0613 C.ar    1  UNL1        0.1057
     11 C         142.9823  140.5716  158.7053 C.ar    1  UNL1        0.0184
     12 C         142.4715  141.7796  159.4331 C.ar    1  UNL1        0.0029
     13 C         140.9961  142.0366  159.5169 C.ar    1  UNL1        0.0194
     14 C         140.0314  141.0854  158.8729 C.ar    1  UNL1        0.0029
     15 C         140.5422  139.8773  158.1451 C.ar    1  UNL1        0.0184
     16 C         143.0393  137.2044  156.6057 C.3     1  UNL1        0.1816
     17 S         142.5284  138.4124  157.3335 S.O2    1  UNL1        0.0104
     18 O         143.8708  139.0663  157.1903 O.2     1  UNL1       -0.1686
     19 O         141.1860  137.7585  157.4767 O.2     1  UNL1       -0.1686
     20 C         139.1610  141.4677  165.0937 C.ar    1  UNL1        0.0206
     21 C         138.1704  140.3581  164.9003 C.ar    1  UNL1        0.0016
     22 C         138.0325  139.2860  165.9404 C.ar    1  UNL1        0.0014
     23 C         138.8854  139.3235  167.1738 C.ar    1  UNL1        0.0183
     24 C         139.8761  140.4331  167.3671 C.ar    1  UNL1        0.1056
     25 C         140.0139  141.5052  166.3271 C.ar    1  UNL1        0.0199
     26 S         140.7289  140.4707  168.6005 S.O2    1  UNL1        0.0070
     27 O         141.8053  141.1812  167.8346 O.2     1  UNL1       -0.1687
     28 O         139.6526  139.7601  169.3664 O.2     1  UNL1       -0.1687
     29 C         141.5818  140.5082  169.8339 C.3     1  UNL1        0.1339
     30 C         142.8440  140.1332  170.5523 C.3     1  UNL1        0.0257
     31 C         141.7967  140.9482  171.2517 C.3     1  UNL1        0.0257
@<TRIPOS>BOND
     1    16    17    1
     2    17    18    2
     3    17    19    2
     4    17    10    1
     5    10    11   ar
     6    11    12   ar
     7    12    13   ar
     8    13     1    1
     9     1     2   ar
    10     2     3   ar
    11     3     4   ar
    12     4     5   ar
    13     5     6   ar
    14     6     7   ar
    15     7    20    1
    16    20    21   ar
    17    21    22   ar
    18    22    23   ar
    19    23    24   ar
    20    24    26    1
    21    26    27    2
    22    26    28    2
    23    26    29    1
    24    29    30    1
    25    30    31    1
    26    24    25   ar
    27     7     8   ar
    28     8     9   ar
    29    13    14   ar
    30    14    15   ar
    31    15    10   ar
    32     9     1   ar
    33     9     4   ar
    34    25    20   ar
    35    31    29    1
@<TRIPOS>MOLECULE
*****
 31 35 0 0 0
SMALL
GASTEIGER

@<TRIPOS>ATOM
      1 C         138.1160  142.5443  156.8453 C.ar    1  UNL1        0.1035
      2 C         137.6130  141.3788  156.0463 C.ar    1  UNL1        0.1197
      3 N         137.3441  140.2482  156.9946 N.ar    1  UNL1       -0.2234
      4 C         137.6809  140.7150  158.3798 C.ar    1  UNL1        0.1639
      5 C         137.6149  140.0311  159.7132 C.ar    1  UNL1        0.0404
      6 C         138.0259  140.7664  160.9543 C.ar    1  UNL1        0.0240
      7 C         138.5029  142.1855  160.8620 C.ar    1  UNL1        0.1015
      8 N         138.5690  142.8694  159.5286 N.ar    1  UNL1       -0.1638
      9 N         138.1580  142.1341  158.2875 N.ar    1  UNL1       -0.2107
     10 C         139.2924  146.5659  155.2040 C.ar    1  UNL1        0.1057
     11 C         140.2221  145.8294  156.1224 C.ar    1  UNL1        0.0184
     12 C         139.8299  144.4889  156.6695 C.ar    1  UNL1        0.0029
     13 C         138.5082  143.8848  156.2982 C.ar    1  UNL1        0.0194
     14 C         137.5784  144.6213  155.3798 C.ar    1  UNL1        0.0029
     15 C         137.9706  145.9618  154.8328 C.ar    1  UNL1        0.0184
     16 C         140.0767  149.2468  154.1100 C.3     1  UNL1        0.1816
     17 S         139.6846  147.9063  154.6570 S.O2    1  UNL1        0.0104
     18 O         138.7329  148.5721  155.6062 O.2     1  UNL1       -0.1686
     19 O         140.6363  147.2405  153.7077 O.2     1  UNL1       -0.1686
     20 C         138.9140  142.9208  162.1032 C.ar    1  UNL1        0.0206
     21 C         137.9061  143.7309  162.8635 C.ar    1  UNL1        0.0016
     22 C         138.3172  144.4662  164.1047 C.ar    1  UNL1        0.0014
     23 C         139.7360  144.3913  164.5855 C.ar    1  UNL1        0.0183
     24 C         140.7439  143.5812  163.8252 C.ar    1  UNL1        0.1056
     25 C         140.3328  142.8460  162.5841 C.ar    1  UNL1        0.0199
     26 S         142.1627  143.5064  164.3060 S.O2    1  UNL1        0.0070
     27 O         142.3600  144.9498  163.9487 O.2     1  UNL1       -0.1687
     28 O         141.9655  142.0630  164.6634 O.2     1  UNL1       -0.1687
     29 C         143.5816  143.4316  164.7869 C.3     1  UNL1        0.1339
     30 C         144.6859  143.9479  165.6609 C.3     1  UNL1        0.0257
     31 C         144.9348  142.7857  164.7458 C.3     1  UNL1        0.0257
@<TRIPOS>BOND
     1    16    17    1
     2    17    18    2
     3    17    19    2
     4    17    10    1
     5    10    11   ar
     6    11    12   ar
     7    12    13   ar
     8    13     1    1
     9     1     2   ar
    10     2     3   ar
    11     3     4   ar
    12     4     5   ar
    13     5     6   ar
    14     6     7   ar
    15     7    20    1
    16    20    21   ar
    17    21    22   ar
    18    22    23   ar
    19    23    24   ar
    20    24    26    1
    21    26    27    2
    22    26    28    2
    23    26    29    1
    24    29    30    1
    25    30    31    1
    26    24    25   ar
    27     7     8   ar
    28     8     9   ar
    29    13    14   ar
    30    14    15   ar
    31    15    10   ar
    32     9     1   ar
    33     9     4   ar
    34    25    20   ar
    35    31    29    1
@<TRIPOS>MOLECULE
*****
 31 35 0 0 0
SMALL
GASTEIGER

@<TRIPOS>ATOM
      1 C         135.0954  140.8090  155.1251 C.ar    1  UNL1        0.1035
      2 C         135.3544  141.1989  153.7000 C.ar    1  UNL1        0.1197
      3 N         136.8129  141.5226  153.5659 N.ar    1  UNL1       -0.2234
      4 C         137.4552  141.3328  154.9081 C.ar    1  UNL1        0.1639
      5 C         138.8696  141.5046  155.3772 C.ar    1  UNL1        0.0404
      6 C         139.2223  141.2354  156.8101 C.ar    1  UNL1        0.0240
      7 C         138.1608  140.7943  157.7737 C.ar    1  UNL1        0.1015
      8 N         136.7465  140.6225  157.3045 N.ar    1  UNL1       -0.1638
      9 N         136.3937  140.8918  155.8717 N.ar    1  UNL1       -0.2107
     10 C         131.1208  139.6027  156.8566 C.ar    1  UNL1        0.1057
     11 C         131.2437  140.8795  156.0790 C.ar    1  UNL1        0.0184
     12 C         132.5686  141.2816  155.5018 C.ar    1  UNL1        0.0029
     13 C         133.7705  140.4069  155.7022 C.ar    1  UNL1        0.0194
     14 C         133.6476  139.1300  156.4798 C.ar    1  UNL1        0.0029
     15 C         132.3228  138.7279  157.0570 C.ar    1  UNL1        0.0184
     16 C         128.4712  138.7984  158.0109 C.3     1  UNL1        0.1816
     17 S         129.7960  139.2006  157.4337 S.O2    1  UNL1        0.0104
     18 O         130.4941  138.2978  158.4072 O.2     1  UNL1       -0.1686
     19 O         129.0979  140.1034  156.4602 O.2     1  UNL1       -0.1686
     20 C         138.5136  140.5250  159.2066 C.ar    1  UNL1        0.0206
     21 C         138.9572  139.1546  159.6250 C.ar    1  UNL1        0.0016
     22 C         139.3100  138.8853  161.0578 C.ar    1  UNL1        0.0014
     23 C         139.2192  139.9865  162.0723 C.ar    1  UNL1        0.0183
     24 C         138.7756  141.3570  161.6538 C.ar    1  UNL1        0.1056
     25 C         138.4228  141.6262  160.2210 C.ar    1  UNL1        0.0199
     26 S         138.6848  142.4583  162.6683 S.O2    1  UNL1        0.0070
     27 O         137.7424  143.2059  161.7723 O.2     1  UNL1       -0.1687
     28 O         139.6273  141.7106  163.5642 O.2     1  UNL1       -0.1687
     29 C         138.5940  143.5595  163.6827 C.3     1  UNL1        0.1339
     30 C         139.2260  144.7048  164.4167 C.3     1  UNL1        0.0257
     31 C         137.8048  144.3215  164.7056 C.3     1  UNL1        0.0257
@<TRIPOS>BOND
     1    16    17    1
     2    17    18    2
     3    17    19    2
     4    17    10    1
     5    10    11   ar
     6    11    12   ar
     7    12    13   ar
     8    13     1    1
     9     1     2   ar
    10     2     3   ar
    11     3     4   ar
    12     4     5   ar
    13     5     6   ar
    14     6     7   ar
    15     7    20    1
    16    20    21   ar
    17    21    22   ar
    18    22    23   ar
    19    23    24   ar
    20    24    26    1
    21    26    27    2
    22    26    28    2
    23    26    29    1
    24    29    30    1
    25    30    31    1
    26    24    25   ar
    27     7     8   ar
    28     8     9   ar
    29    13    14   ar
    30    14    15   ar
    31    15    10   ar
    32     9     1   ar
    33     9     4   ar
    34    25    20   ar
    35    31    29    1
@<TRIPOS>MOLECULE
*****
 31 35 0 0 0
SMALL
GASTEIGER

@<TRIPOS>ATOM
      1 C         142.7370  138.6777  158.6621 C.ar    1  UNL1        0.1035
      2 C         143.3811  139.9758  158.2745 C.ar    1  UNL1        0.1197
      3 N         144.0286  139.7900  156.9343 N.ar    1  UNL1       -0.2234
      4 C         143.7848  138.3771  156.4936 C.ar    1  UNL1        0.1639
      5 C         144.1866  137.6277  155.2579 C.ar    1  UNL1        0.0404
      6 C         143.7900  136.1908  155.0900 C.ar    1  UNL1        0.0240
      7 C         142.9918  135.5034  156.1578 C.ar    1  UNL1        0.1015
      8 N         142.5900  136.2528  157.3935 N.ar    1  UNL1       -0.1638
      9 N         142.9866  137.6897  157.5614 N.ar    1  UNL1       -0.2107
     10 C         140.4565  137.8865  162.4599 C.ar    1  UNL1        0.1057
     11 C         141.9425  137.6853  162.4215 C.ar    1  UNL1        0.0184
     12 C         142.7026  137.9490  161.1556 C.ar    1  UNL1        0.0029
     13 C         141.9769  138.4140  159.9280 C.ar    1  UNL1        0.0194
     14 C         140.4909  138.6153  159.9664 C.ar    1  UNL1        0.0029
     15 C         139.7307  138.3515  161.2323 C.ar    1  UNL1        0.0184
     16 C         138.9364  137.3590  164.9918 C.3     1  UNL1        0.1816
     17 S         139.6964  137.6228  163.7259 S.O2    1  UNL1        0.0104
     18 O         140.9869  137.3735  164.4487 O.2     1  UNL1       -0.1686
     19 O         138.4059  137.8720  163.0030 O.2     1  UNL1       -0.1686
     20 C         142.5952  134.0665  155.9899 C.ar    1  UNL1        0.0206
     21 C         141.4776  133.7008  155.0587 C.ar    1  UNL1        0.0016
     22 C         141.0811  132.2639  154.8908 C.ar    1  UNL1        0.0014
     23 C         141.8022  131.1927  155.6541 C.ar    1  UNL1        0.0183
     24 C         142.9199  131.5585  156.5854 C.ar    1  UNL1        0.1056
     25 C         143.3163  132.9954  156.7532 C.ar    1  UNL1        0.0199
     26 S         143.6410  130.4874  157.3487 S.O2    1  UNL1        0.0070
     27 O         142.7358  129.4517  156.7504 O.2     1  UNL1       -0.1687
     28 O         144.5462  131.5231  157.9469 O.2     1  UNL1       -0.1687
     29 C         144.3621  129.4163  158.1120 C.3     1  UNL1        0.1339
     30 C         144.5435  127.9692  158.4627 C.3     1  UNL1        0.0257
     31 C         145.4297  129.0081  159.0834 C.3     1  UNL1        0.0257
@<TRIPOS>BOND
     1    16    17    1
     2    17    18    2
     3    17    19    2
     4    17    10    1
     5    10    11   ar
     6    11    12   ar
     7    12    13   ar
     8    13     1    1
     9     1     2   ar
    10     2     3   ar
    11     3     4   ar
    12     4     5   ar
    13     5     6   ar
    14     6     7   ar
    15     7    20    1
    16    20    21   ar
    17    21    22   ar
    18    22    23   ar
    19    23    24   ar
    20    24    26    1
    21    26    27    2
    22    26    28    2
    23    26    29    1
    24    29    30    1
    25    30    31    1
    26    24    25   ar
    27     7     8   ar
    28     8     9   ar
    29    13    14   ar
    30    14    15   ar
    31    15    10   ar
    32     9     1   ar
    33     9     4   ar
    34    25    20   ar
    35    31    29    1
@<TRIPOS>MOLECULE
*****
 31 35 0 0 0
SMALL
GASTEIGER

@<TRIPOS>ATOM
      1 C         140.8678  137.4394  155.6518 C.ar    1  UNL1        0.1035
      2 C         140.7282  138.0056  154.2698 C.ar    1  UNL1        0.1197
      3 N         139.9419  139.2792  154.3680 N.ar    1  UNL1       -0.2234
      4 C         139.5955  139.5001  155.8106 C.ar    1  UNL1        0.1639
      5 C         138.8330  140.5898  156.5043 C.ar    1  UNL1        0.0404
      6 C         138.6428  140.5423  157.9914 C.ar    1  UNL1        0.0240
      7 C         139.2150  139.4052  158.7848 C.ar    1  UNL1        0.1015
      8 N         139.9775  138.3156  158.0912 N.ar    1  UNL1       -0.1638
      9 N         140.1678  138.3630  156.6041 N.ar    1  UNL1       -0.2107
     10 C         143.0106  133.6373  156.7486 C.ar    1  UNL1        0.1057
     11 C         141.9240  133.6144  155.7148 C.ar    1  UNL1        0.0184
     12 C         141.2097  134.8817  155.3492 C.ar    1  UNL1        0.0029
     13 C         141.5820  136.1720  156.0174 C.ar    1  UNL1        0.0194
     14 C         142.6687  136.1949  157.0512 C.ar    1  UNL1        0.0029
     15 C         143.3829  134.9275  157.4168 C.ar    1  UNL1        0.0184
     16 C         144.4389  131.1025  157.4796 C.3     1  UNL1        0.1816
     17 S         143.7248  132.3699  157.1141 S.O2    1  UNL1        0.0104
     18 O         142.7102  131.5764  156.3453 O.2     1  UNL1       -0.1686
     19 O         144.7393  133.1634  157.8830 O.2     1  UNL1       -0.1686
     20 C         139.0247  139.3579  160.2720 C.ar    1  UNL1        0.0206
     21 C         138.9476  138.0359  160.9765 C.ar    1  UNL1        0.0016
     22 C         138.7573  137.9885  162.4637 C.ar    1  UNL1        0.0014
     23 C         138.6442  139.2631  163.2463 C.ar    1  UNL1        0.0183
     24 C         138.7213  140.5852  162.5417 C.ar    1  UNL1        0.1056
     25 C         138.9116  140.6325  161.0546 C.ar    1  UNL1        0.0199
     26 S         138.6082  141.8598  163.3243 S.O2    1  UNL1        0.0070
     27 O         139.7121  141.4014  164.2305 O.2     1  UNL1       -0.1687
     28 O         137.5042  142.3182  162.4181 O.2     1  UNL1       -0.1687
     29 C         138.4950  143.1344  164.1069 C.3     1  UNL1        0.1339
     30 C         137.6520  144.2248  164.6989 C.3     1  UNL1        0.0257
     31 C         139.1420  144.2517  164.8705 C.3     1  UNL1        0.0257
@<TRIPOS>BOND
     1    16    17    1
     2    17    18    2
     3    17    19    2
     4    17    10    1
     5    10    11   ar
     6    11    12   ar
     7    12    13   ar
     8    13     1    1
     9     1     2   ar
    10     2     3   ar
    11     3     4   ar
    12     4     5   ar
    13     5     6   ar
    14     6     7   ar
    15     7    20    1
    16    20    21   ar
    17    21    22   ar
    18    22    23   ar
    19    23    24   ar
    20    24    26    1
    21    26    27    2
    22    26    28    2
    23    26    29    1
    24    29    30    1
    25    30    31    1
    26    24    25   ar
    27     7     8   ar
    28     8     9   ar
    29    13    14   ar
    30    14    15   ar
    31    15    10   ar
    32     9     1   ar
    33     9     4   ar
    34    25    20   ar
    35    31    29    1
@<TRIPOS>MOLECULE
*****
 31 35 0 0 0
SMALL
GASTEIGER

@<TRIPOS>ATOM
      1 C         144.1277  141.3695  164.2594 C.ar    1  UNL1        0.1035
      2 C         145.5767  141.7088  164.0715 C.ar    1  UNL1        0.1197
      3 N         145.8387  141.8237  162.5990 N.ar    1  UNL1       -0.2234
      4 C         144.5516  141.5555  161.8769 C.ar    1  UNL1        0.1639
      5 C         144.2058  141.5306  160.4175 C.ar    1  UNL1        0.0404
      6 C         142.8027  141.2250  159.9843 C.ar    1  UNL1        0.0240
      7 C         141.7452  140.9443  161.0105 C.ar    1  UNL1        0.1015
      8 N         142.0910  140.9692  162.4699 N.ar    1  UNL1       -0.1638
      9 N         143.4941  141.2748  162.9031 N.ar    1  UNL1       -0.2107
     10 C         142.0467  140.7455  168.2002 C.ar    1  UNL1        0.1057
     11 C         142.4916  142.1199  167.7963 C.ar    1  UNL1        0.0184
     12 C         143.1853  142.3278  166.4827 C.ar    1  UNL1        0.0029
     13 C         143.4341  141.1615  165.5730 C.ar    1  UNL1        0.0194
     14 C         142.9891  139.7871  165.9769 C.ar    1  UNL1        0.0029
     15 C         142.2955  139.5791  167.2905 C.ar    1  UNL1        0.0184
     16 C         140.6595  140.3296  170.8274 C.3     1  UNL1        0.1816
     17 S         141.3530  140.5375  169.5138 S.O2    1  UNL1        0.0104
     18 O         142.5199  141.1533  170.2274 O.2     1  UNL1       -0.1686
     19 O         140.1862  139.9217  168.8002 O.2     1  UNL1       -0.1686
     20 C         140.3420  140.6387  160.5773 C.ar    1  UNL1        0.0206
     21 C         139.5218  139.6415  161.3406 C.ar    1  UNL1        0.0016
     22 C         138.1185  139.3359  160.9073 C.ar    1  UNL1        0.0014
     23 C         137.5356  140.0276  159.7107 C.ar    1  UNL1        0.0183
     24 C         138.3559  141.0249  158.9474 C.ar    1  UNL1        0.1056
     25 C         139.7591  141.3304  159.3807 C.ar    1  UNL1        0.0199
     26 S         137.7730  141.7165  157.7508 S.O2    1  UNL1        0.0070
     27 O         138.4914  142.9776  158.1299 O.2     1  UNL1       -0.1687
     28 O         137.0547  140.4555  157.3718 O.2     1  UNL1       -0.1687
     29 C         137.1901  142.4082  156.5543 C.3     1  UNL1        0.1339
     30 C         136.2930  142.3899  155.3523 C.3     1  UNL1        0.0257
     31 C         137.0777  143.6246  155.6838 C.3     1  UNL1        0.0257
@<TRIPOS>BOND
     1    16    17    1
     2    17    18    2
     3    17    19    2
     4    17    10    1
     5    10    11   ar
     6    11    12   ar
     7    12    13   ar
     8    13     1    1
     9     1     2   ar
    10     2     3   ar
    11     3     4   ar
    12     4     5   ar
    13     5     6   ar
    14     6     7   ar
    15     7    20    1
    16    20    21   ar
    17    21    22   ar
    18    22    23   ar
    19    23    24   ar
    20    24    26    1
    21    26    27    2
    22    26    28    2
    23    26    29    1
    24    29    30    1
    25    30    31    1
    26    24    25   ar
    27     7     8   ar
    28     8     9   ar
    29    13    14   ar
    30    14    15   ar
    31    15    10   ar
    32     9     1   ar
    33     9     4   ar
    34    25    20   ar
    35    31    29    1
@<TRIPOS>MOLECULE
*****
 31 35 0 0 0
SMALL
GASTEIGER

@<TRIPOS>ATOM
      1 C         138.9040  142.7226  164.0021 C.ar    1  UNL1        0.1035
      2 C         138.0124  143.9153  163.8225 C.ar    1  UNL1        0.1197
      3 N         137.8561  144.1597  162.3508 N.ar    1  UNL1       -0.2234
      4 C         138.6512  143.1181  161.6209 C.ar    1  UNL1        0.1639
      5 C         138.8691  142.8636  160.1588 C.ar    1  UNL1        0.0404
      6 C         139.7346  141.7209  159.7173 C.ar    1  UNL1        0.0240
      7 C         140.3823  140.8326  160.7379 C.ar    1  UNL1        0.1015
      8 N         140.1644  141.0871  162.1999 N.ar    1  UNL1       -0.1638
      9 N         139.2989  142.2298  162.6414 N.ar    1  UNL1       -0.2107
     10 C         140.1721  140.9360  167.9328 C.ar    1  UNL1        0.1057
     11 C         140.5022  142.3647  167.6170 C.ar    1  UNL1        0.0184
     12 C         140.0795  142.9602  166.3068 C.ar    1  UNL1        0.0029
     13 C         139.3267  142.1271  165.3123 C.ar    1  UNL1        0.0194
     14 C         138.9966  140.6983  165.6281 C.ar    1  UNL1        0.0029
     15 C         139.4193  140.1028  166.9383 C.ar    1  UNL1        0.0184
     16 C         141.0173  139.7450  170.5533 C.3     1  UNL1        0.1816
     17 S         140.5948  140.3405  169.2430 S.O2    1  UNL1        0.0104
     18 O         139.2114  139.7954  169.4415 O.2     1  UNL1       -0.1686
     19 O         141.9781  140.8856  169.0445 O.2     1  UNL1       -0.1686
     20 C         141.2479  139.6899  160.2963 C.ar    1  UNL1        0.0206
     21 C         142.2330  139.0828  161.2507 C.ar    1  UNL1        0.0016
     22 C         143.0986  137.9400  160.8091 C.ar    1  UNL1        0.0014
     23 C         142.9791  137.4044  159.4131 C.ar    1  UNL1        0.0183
     24 C         141.9939  138.0116  158.4587 C.ar    1  UNL1        0.1056
     25 C         141.1284  139.1543  158.9003 C.ar    1  UNL1        0.0199
     26 S         141.8744  137.4760  157.0626 S.O2    1  UNL1        0.0070
     27 O         140.3791  137.5161  157.1753 O.2     1  UNL1       -0.1687
     28 O         143.3696  137.4360  156.9500 O.2     1  UNL1       -0.1687
     29 C         141.7548  136.9405  155.6666 C.3     1  UNL1        0.1339
     30 C         142.3197  136.7712  154.2874 C.3     1  UNL1        0.0257
     31 C         140.9829  136.1821  154.6279 C.3     1  UNL1        0.0257
@<TRIPOS>BOND
     1    16    17    1
     2    17    18    2
     3    17    19    2
     4    17    10    1
     5    10    11   ar
     6    11    12   ar
     7    12    13   ar
     8    13     1    1
     9     1     2   ar
    10     2     3   ar
    11     3     4   ar
    12     4     5   ar
    13     5     6   ar
    14     6     7   ar
    15     7    20    1
    16    20    21   ar
    17    21    22   ar
    18    22    23   ar
    19    23    24   ar
    20    24    26    1
    21    26    27    2
    22    26    28    2
    23    26    29    1
    24    29    30    1
    25    30    31    1
    26    24    25   ar
    27     7     8   ar
    28     8     9   ar
    29    13    14   ar
    30    14    15   ar
    31    15    10   ar
    32     9     1   ar
    33     9     4   ar
    34    25    20   ar
    35    31    29    1
