@<TRIPOS>MOLECULE
*****
 45 47 0 0 0
SMALL
GASTEIGER

@<TRIPOS>ATOM
      1 C         139.5293  141.1362  160.2834 C.3     1  UNL1        0.1091
      2 C         138.3945  142.5825  161.3418 C.3     1  UNL1        0.1708
      3 N         139.6010  141.7469  161.6516 N.4     1  UNL1        0.3074
      4 C         140.8075  140.9112  161.9614 C.3     1  UNL1        0.1708
      5 C         139.6727  142.3575  163.0198 C.3     1  UNL1        0.1306
      6 C         138.9618  141.7074  164.1695 C.3     1  UNL1        0.1514
      7 N         139.7478  141.1511  165.3196 N.am    1  UNL1       -0.2944
      8 C         140.1797  142.0520  166.4384 C.2     1  UNL1        0.2666
      9 O         139.8255  143.5092  166.4072 O.2     1  UNL1       -0.2684
     10 H         139.9803  140.1946  165.3400 H       1  UNL1        0.1500
     11 C         140.9658  141.4957  167.5885 C.ar    1  UNL1        0.1664
     12 N         142.1731  142.2274  168.0954 N.ar    1  UNL1       -0.2237
     13 C         142.9592  141.6711  169.2454 C.ar    1  UNL1        0.1695
     14 CL        144.1665  142.4028  169.7524 Cl      1  UNL1       -0.0584
     15 C         142.5380  140.3831  169.8885 C.ar    1  UNL1        0.1555
     16 N         143.3241  139.8267  171.0386 N.pl3   1  UNL1       -0.3407
     17 N         141.3307  139.6514  169.3815 N.ar    1  UNL1       -0.2128
     18 C         140.5446  140.2076  168.2315 C.ar    1  UNL1        0.1492
     19 N         139.3373  139.4759  167.7246 N.pl3   1  UNL1       -0.3413
     20 H         144.1165  140.3070  171.3713 H       1  UNL1        0.1438
     21 H         143.0476  138.9813  171.4606 H       1  UNL1        0.1438
     22 H         139.0608  138.6305  168.1466 H       1  UNL1        0.1438
     23 H         138.8213  139.8410  166.9698 H       1  UNL1        0.1438
     24 C         138.8932  139.7909  160.0950 C.3     1  UNL1        0.0628
     25 C         137.6816  139.4154  160.8957 C.3     1  UNL1        0.0273
     26 C         137.7357  138.2470  161.8348 C.3     1  UNL1        0.0896
     27 N         139.0603  137.6734  162.2426 N.am    1  UNL1       -0.3041
     28 C         139.4824  137.7101  163.6816 C.2     1  UNL1        0.2269
     29 O         138.5799  138.3204  164.7126 O.2     1  UNL1       -0.2747
     30 H         139.6526  137.2728  161.5659 H       1  UNL1        0.1494
     31 C         140.8070  137.1365  164.0894 C.3     1  UNL1        0.1113
     32 C         142.0259  138.0103  164.1183 C.ar    1  UNL1       -0.0129
     33 C         142.8483  138.1916  162.8771 C.ar    1  UNL1       -0.0007
     34 C         144.0672  139.0654  162.9060 C.ar    1  UNL1        0.0366
     35 C         144.4635  139.7580  164.1761 C.ar    1  UNL1        0.1390
     36 C         143.6411  139.5767  165.4173 C.ar    1  UNL1        0.0366
     37 C         142.4223  138.7029  165.3884 C.ar    1  UNL1       -0.0007
     38 O         145.6824  140.6318  164.2049 O.3     1  UNL1       -0.4706
     39 C         145.7843  141.8078  163.2794 C.3     1  UNL1        0.2320
     40 C         144.6531  142.7885  163.1854 C.ar    1  UNL1        0.0212
     41 C         144.1865  143.5150  164.4119 C.ar    1  UNL1       -0.0007
     42 C         143.0554  144.4957  164.3179 C.ar    1  UNL1       -0.0002
     43 C         142.3908  144.7497  162.9974 C.ar    1  UNL1       -0.0000
     44 C         142.8574  144.0231  161.7708 C.ar    1  UNL1       -0.0002
     45 C         143.9885  143.0425  161.8649 C.ar    1  UNL1       -0.0007
@<TRIPOS>UNITY_ATOM_ATTR
3 1
charge 1
@<TRIPOS>BOND
     1     2     3    1
     2     3     4    1
     3     3     1    1
     4     1    24    1
     5    24    25    1
     6    25    26    1
     7    26    27    1
     8    27    28   am
     9    28    29    2
    10    28    31    1
    11    31    32    1
    12    32    33   ar
    13    33    34   ar
    14    34    35   ar
    15    35    38    1
    16    38    39    1
    17    39    40    1
    18    40    41   ar
    19    41    42   ar
    20    42    43   ar
    21    43    44   ar
    22    44    45   ar
    23    35    36   ar
    24    36    37   ar
    25     3     5    1
    26     5     6    1
    27     6     7    1
    28     7     8   am
    29     8     9    2
    30     8    11    1
    31    11    12   ar
    32    12    13   ar
    33    13    14    1
    34    13    15   ar
    35    15    16    1
    36    15    17   ar
    37    17    18   ar
    38    18    19    1
    39    37    32   ar
    40    18    11   ar
    41    45    40   ar
    42    27    30    1
    43     7    10    1
    44    16    20    1
    45    16    21    1
    46    19    22    1
    47    19    23    1
@<TRIPOS>MOLECULE
*****
 45 47 0 0 0
SMALL
GASTEIGER

@<TRIPOS>ATOM
      1 C         144.4074  142.3911  161.4455 C.3     1  UNL1        0.1091
      2 C         144.4400  143.9084  162.9275 C.3     1  UNL1        0.1708
      3 N         144.7661  142.4446  162.9009 N.4     1  UNL1        0.3074
      4 C         145.0922  140.9807  162.8743 C.3     1  UNL1        0.1708
      5 C         145.1248  142.4980  164.3565 C.3     1  UNL1        0.1306
      6 C         144.4416  143.4798  165.2617 C.3     1  UNL1        0.1514
      7 N         143.7988  143.0073  166.5319 N.am    1  UNL1       -0.2944
      8 C         142.7903  141.8975  166.4943 C.2     1  UNL1        0.2666
      9 O         142.4247  141.2603  165.1866 O.2     1  UNL1       -0.2684
     10 H         144.0387  143.4255  167.3902 H       1  UNL1        0.1500
     11 C         142.1475  141.4250  167.7646 C.ar    1  UNL1        0.1664
     12 N         141.2999  142.3641  168.5707 N.ar    1  UNL1       -0.2237
     13 C         140.6571  141.8917  169.8409 C.ar    1  UNL1        0.1695
     14 CL        139.8095  142.8309  170.6469 Cl      1  UNL1       -0.0584
     15 C         140.8618  140.4801  170.3051 C.ar    1  UNL1        0.1555
     16 N         140.2189  140.0076  171.5754 N.pl3   1  UNL1       -0.3407
     17 N         141.7093  139.5410  169.4990 N.ar    1  UNL1       -0.2128
     18 C         142.3522  140.0134  168.2288 C.ar    1  UNL1        0.1492
     19 N         143.1997  139.0743  167.4228 N.pl3   1  UNL1       -0.3413
     20 H         139.6626  140.6240  172.1044 H       1  UNL1        0.1438
     21 H         140.3533  139.0812  171.8800 H       1  UNL1        0.1438
     22 H         143.3341  138.1478  167.7275 H       1  UNL1        0.1438
     23 H         143.6216  139.3844  166.5891 H       1  UNL1        0.1438
     24 C         142.9687  142.3035  161.0303 C.3     1  UNL1        0.0628
     25 C         142.3751  143.3659  160.1534 C.3     1  UNL1        0.0273
     26 C         141.4471  144.3890  160.7381 C.3     1  UNL1        0.0896
     27 N         140.5337  144.0145  161.8674 N.am    1  UNL1       -0.3041
     28 C         139.3957  144.9170  162.2425 C.2     1  UNL1        0.2269
     29 O         139.1711  146.1939  161.4881 O.2     1  UNL1       -0.2747
     30 H         140.6810  143.1764  162.3625 H       1  UNL1        0.1494
     31 C         138.4823  144.5425  163.3718 C.3     1  UNL1        0.1113
     32 C         138.4366  143.1253  163.8611 C.ar    1  UNL1       -0.0129
     33 C         137.6775  142.0887  163.0872 C.ar    1  UNL1       -0.0007
     34 C         137.6319  140.6715  163.5766 C.ar    1  UNL1        0.0366
     35 C         138.3455  140.2910  164.8399 C.ar    1  UNL1        0.1390
     36 C         139.1047  141.3276  165.6138 C.ar    1  UNL1        0.0366
     37 C         139.1502  142.7447  165.1245 C.ar    1  UNL1       -0.0007
     38 O         138.2999  138.8737  165.3292 O.3     1  UNL1       -0.4706
     39 C         138.7801  137.7598  164.4469 C.3     1  UNL1        0.2320
     40 C         140.0464  137.9199  163.6590 C.ar    1  UNL1        0.0212
     41 C         141.3645  138.0142  164.3687 C.ar    1  UNL1       -0.0007
     42 C         142.6308  138.1743  163.5808 C.ar    1  UNL1       -0.0002
     43 C         142.5790  138.2400  162.0831 C.ar    1  UNL1       -0.0000
     44 C         141.2609  138.1456  161.3734 C.ar    1  UNL1       -0.0002
     45 C         139.9946  137.9855  162.1613 C.ar    1  UNL1       -0.0007
@<TRIPOS>UNITY_ATOM_ATTR
3 1
charge 1
@<TRIPOS>BOND
     1     2     3    1
     2     3     4    1
     3     3     1    1
     4     1    24    1
     5    24    25    1
     6    25    26    1
     7    26    27    1
     8    27    28   am
     9    28    29    2
    10    28    31    1
    11    31    32    1
    12    32    33   ar
    13    33    34   ar
    14    34    35   ar
    15    35    38    1
    16    38    39    1
    17    39    40    1
    18    40    41   ar
    19    41    42   ar
    20    42    43   ar
    21    43    44   ar
    22    44    45   ar
    23    35    36   ar
    24    36    37   ar
    25     3     5    1
    26     5     6    1
    27     6     7    1
    28     7     8   am
    29     8     9    2
    30     8    11    1
    31    11    12   ar
    32    12    13   ar
    33    13    14    1
    34    13    15   ar
    35    15    16    1
    36    15    17   ar
    37    17    18   ar
    38    18    19    1
    39    37    32   ar
    40    18    11   ar
    41    45    40   ar
    42    27    30    1
    43     7    10    1
    44    16    20    1
    45    16    21    1
    46    19    22    1
    47    19    23    1
@<TRIPOS>MOLECULE
*****
 45 47 0 0 0
SMALL
GASTEIGER

@<TRIPOS>ATOM
      1 C         142.4012  144.4990  162.1683 C.3     1  UNL1        0.1091
      2 C         143.7348  144.9709  163.7490 C.3     1  UNL1        0.1708
      3 N         143.1951  143.7014  163.1600 N.4     1  UNL1        0.3074
      4 C         142.6554  142.4319  162.5710 C.3     1  UNL1        0.1708
      5 C         143.9891  142.9037  164.1517 C.3     1  UNL1        0.1306
      6 C         143.7808  143.1142  165.6222 C.3     1  UNL1        0.1514
      7 N         142.5930  142.5051  166.3062 N.am    1  UNL1       -0.2944
      8 C         142.6128  142.2857  167.7899 C.2     1  UNL1        0.2666
      9 O         143.8205  142.6755  168.5896 O.2     1  UNL1       -0.2684
     10 H         141.8003  142.2493  165.7813 H       1  UNL1        0.1500
     11 C         141.4249  141.6766  168.4740 C.ar    1  UNL1        0.1664
     12 N         140.5536  140.7023  167.7379 N.ar    1  UNL1       -0.2237
     13 C         139.3658  140.0931  168.4219 C.ar    1  UNL1        0.1695
     14 CL        138.4945  139.1188  167.6859 Cl      1  UNL1       -0.0584
     15 C         139.0491  140.4583  169.8419 C.ar    1  UNL1        0.1555
     16 N         137.8612  139.8491  170.5259 N.pl3   1  UNL1       -0.3407
     17 N         139.9203  141.4326  170.5779 N.ar    1  UNL1       -0.2128
     18 C         141.1082  142.0417  169.8939 C.ar    1  UNL1        0.1492
     19 N         141.9794  143.0160  170.6299 N.pl3   1  UNL1       -0.3413
     20 H         137.2893  139.2097  170.0428 H       1  UNL1        0.1438
     21 H         137.6533  140.0888  171.4579 H       1  UNL1        0.1438
     22 H         141.7716  143.2557  171.5619 H       1  UNL1        0.1438
     23 H         142.7591  143.4158  170.1810 H       1  UNL1        0.1438
     24 C         142.3253  144.0551  160.7376 C.3     1  UNL1        0.0628
     25 C         141.5738  144.8800  159.7351 C.3     1  UNL1        0.0273
     26 C         140.1447  144.5545  159.4165 C.3     1  UNL1        0.0896
     27 N         139.2396  144.0231  160.4881 N.am    1  UNL1       -0.3041
     28 C         138.6189  142.6655  160.3405 C.2     1  UNL1        0.2269
     29 O         138.9033  141.8394  159.1212 O.2     1  UNL1       -0.2747
     30 H         139.0530  144.5653  161.2884 H       1  UNL1        0.1494
     31 C         137.7139  142.1341  161.4121 C.3     1  UNL1        0.1113
     32 C         138.1579  140.9837  162.2664 C.ar    1  UNL1       -0.0129
     33 C         138.0366  139.5790  161.7548 C.ar    1  UNL1       -0.0007
     34 C         138.4805  138.4287  162.6091 C.ar    1  UNL1        0.0366
     35 C         139.0457  138.6833  163.9750 C.ar    1  UNL1        0.1390
     36 C         139.1670  140.0881  164.4866 C.ar    1  UNL1        0.0366
     37 C         138.7231  141.2383  163.6323 C.ar    1  UNL1       -0.0007
     38 O         139.4897  137.5330  164.8293 O.3     1  UNL1       -0.4706
     39 C         140.8158  136.8790  164.5766 C.3     1  UNL1        0.2320
     40 C         142.0297  137.7209  164.3161 C.ar    1  UNL1        0.0212
     41 C         142.8124  138.2841  165.4650 C.ar    1  UNL1       -0.0007
     42 C         144.0262  139.1259  165.2045 C.ar    1  UNL1       -0.0002
     43 C         144.4573  139.4045  163.7951 C.ar    1  UNL1       -0.0000
     44 C         143.6746  138.8413  162.6461 C.ar    1  UNL1       -0.0002
     45 C         142.4608  137.9995  162.9066 C.ar    1  UNL1       -0.0007
@<TRIPOS>UNITY_ATOM_ATTR
3 1
charge 1
@<TRIPOS>BOND
     1     2     3    1
     2     3     4    1
     3     3     1    1
     4     1    24    1
     5    24    25    1
     6    25    26    1
     7    26    27    1
     8    27    28   am
     9    28    29    2
    10    28    31    1
    11    31    32    1
    12    32    33   ar
    13    33    34   ar
    14    34    35   ar
    15    35    38    1
    16    38    39    1
    17    39    40    1
    18    40    41   ar
    19    41    42   ar
    20    42    43   ar
    21    43    44   ar
    22    44    45   ar
    23    35    36   ar
    24    36    37   ar
    25     3     5    1
    26     5     6    1
    27     6     7    1
    28     7     8   am
    29     8     9    2
    30     8    11    1
    31    11    12   ar
    32    12    13   ar
    33    13    14    1
    34    13    15   ar
    35    15    16    1
    36    15    17   ar
    37    17    18   ar
    38    18    19    1
    39    37    32   ar
    40    18    11   ar
    41    45    40   ar
    42    27    30    1
    43     7    10    1
    44    16    20    1
    45    16    21    1
    46    19    22    1
    47    19    23    1
@<TRIPOS>MOLECULE
*****
 45 47 0 0 0
SMALL
GASTEIGER

@<TRIPOS>ATOM
      1 C         142.4500  138.3304  162.5392 C.3     1  UNL1        0.1091
      2 C         141.1589  140.0036  162.7212 C.3     1  UNL1        0.1708
      3 N         141.1524  138.5972  163.2426 N.4     1  UNL1        0.3074
      4 C         141.1458  137.1908  163.7641 C.3     1  UNL1        0.1708
      5 C         139.8547  138.8640  163.9461 C.3     1  UNL1        0.1306
      6 C         139.7779  138.7659  165.4410 C.3     1  UNL1        0.1514
      7 N         140.5605  139.7178  166.2962 N.am    1  UNL1       -0.2944
      8 C         140.1007  140.0250  167.6905 C.2     1  UNL1        0.2666
      9 O         138.8582  139.3804  168.2296 O.2     1  UNL1       -0.2684
     10 H         141.3760  140.1409  165.9424 H       1  UNL1        0.1500
     11 C         140.8834  140.9769  168.5458 C.ar    1  UNL1        0.1664
     12 N         140.2981  142.3075  168.9159 N.ar    1  UNL1       -0.2237
     13 C         141.0807  143.2594  169.7710 C.ar    1  UNL1        0.1695
     14 CL        140.4954  144.5900  170.1411 Cl      1  UNL1       -0.0584
     15 C         142.4486  142.8806  170.2561 C.ar    1  UNL1        0.1555
     16 N         143.2313  143.8325  171.1114 N.pl3   1  UNL1       -0.3407
     17 N         143.0339  141.5501  169.8861 N.ar    1  UNL1       -0.2128
     18 C         142.2513  140.5982  169.0309 C.ar    1  UNL1        0.1492
     19 N         142.8366  139.2676  168.6608 N.pl3   1  UNL1       -0.3413
     20 H         142.8472  144.7059  171.3543 H       1  UNL1        0.1438
     21 H         144.1291  143.5840  171.4298 H       1  UNL1        0.1438
     22 H         143.7344  139.0190  168.9792 H       1  UNL1        0.1438
     23 H         142.3229  138.6428  168.0995 H       1  UNL1        0.1438
     24 C         142.4473  137.7772  161.1450 C.3     1  UNL1        0.0628
     25 C         143.2015  138.4823  160.0568 C.3     1  UNL1        0.0273
     26 C         142.5159  138.8189  158.7659 C.3     1  UNL1        0.0896
     27 N         141.5749  139.9850  158.6982 N.am    1  UNL1       -0.3041
     28 C         140.0930  139.7563  158.7396 C.2     1  UNL1        0.2269
     29 O         139.5521  138.3615  158.8486 O.2     1  UNL1       -0.2747
     30 H         141.9299  140.9005  158.6267 H       1  UNL1        0.1494
     31 C         139.1520  140.9224  158.6720 C.3     1  UNL1        0.1113
     32 C         139.0990  141.9098  159.8000 C.ar    1  UNL1       -0.0129
     33 C         138.2257  141.6429  160.9900 C.ar    1  UNL1       -0.0007
     34 C         138.1728  142.6302  162.1179 C.ar    1  UNL1        0.0366
     35 C         138.9930  143.8846  162.0558 C.ar    1  UNL1        0.1390
     36 C         139.8662  144.1515  160.8658 C.ar    1  UNL1        0.0366
     37 C         139.9192  143.1642  159.7379 C.ar    1  UNL1       -0.0007
     38 O         138.9400  144.8720  163.1838 O.3     1  UNL1       -0.4706
     39 C         139.6286  144.5665  164.4809 C.3     1  UNL1        0.2320
     40 C         141.1030  144.2910  164.5006 C.ar    1  UNL1        0.0212
     41 C         142.0527  145.2416  163.8340 C.ar    1  UNL1       -0.0007
     42 C         143.5270  144.9660  163.8537 C.ar    1  UNL1       -0.0002
     43 C         144.0516  143.7398  164.5401 C.ar    1  UNL1       -0.0000
     44 C         143.1020  142.7891  165.2067 C.ar    1  UNL1       -0.0002
     45 C         141.6277  143.0647  165.1870 C.ar    1  UNL1       -0.0007
@<TRIPOS>UNITY_ATOM_ATTR
3 1
charge 1
@<TRIPOS>BOND
     1     2     3    1
     2     3     4    1
     3     3     1    1
     4     1    24    1
     5    24    25    1
     6    25    26    1
     7    26    27    1
     8    27    28   am
     9    28    29    2
    10    28    31    1
    11    31    32    1
    12    32    33   ar
    13    33    34   ar
    14    34    35   ar
    15    35    38    1
    16    38    39    1
    17    39    40    1
    18    40    41   ar
    19    41    42   ar
    20    42    43   ar
    21    43    44   ar
    22    44    45   ar
    23    35    36   ar
    24    36    37   ar
    25     3     5    1
    26     5     6    1
    27     6     7    1
    28     7     8   am
    29     8     9    2
    30     8    11    1
    31    11    12   ar
    32    12    13   ar
    33    13    14    1
    34    13    15   ar
    35    15    16    1
    36    15    17   ar
    37    17    18   ar
    38    18    19    1
    39    37    32   ar
    40    18    11   ar
    41    45    40   ar
    42    27    30    1
    43     7    10    1
    44    16    20    1
    45    16    21    1
    46    19    22    1
    47    19    23    1
@<TRIPOS>MOLECULE
*****
 45 47 0 0 0
SMALL
GASTEIGER

@<TRIPOS>ATOM
      1 C         138.4074  142.4023  160.2337 C.3     1  UNL1        0.1091
      2 C         138.5754  140.7241  158.9471 C.3     1  UNL1        0.1708
      3 N         138.1880  140.9259  160.3821 N.4     1  UNL1        0.3074
      4 C         137.8005  141.1277  161.8170 C.3     1  UNL1        0.1708
      5 C         137.9685  139.4495  160.5305 C.3     1  UNL1        0.1306
      6 C         139.0943  138.5651  160.9781 C.3     1  UNL1        0.1514
      7 N         140.3019  139.1637  161.6366 N.am    1  UNL1       -0.2944
      8 C         141.5568  139.3826  160.8446 C.2     1  UNL1        0.2666
      9 O         141.6042  139.0030  159.3943 O.2     1  UNL1       -0.2684
     10 H         140.2708  139.4128  162.5885 H       1  UNL1        0.1500
     11 C         142.7644  139.9812  161.5031 C.ar    1  UNL1        0.1664
     12 N         143.3168  139.3681  162.7557 N.ar    1  UNL1       -0.2237
     13 C         144.5243  139.9666  163.4143 C.ar    1  UNL1        0.1695
     14 CL        145.0768  139.3535  164.6668 Cl      1  UNL1       -0.0584
     15 C         145.1794  141.1781  162.8202 C.ar    1  UNL1        0.1555
     16 N         146.3870  141.7767  163.4787 N.pl3   1  UNL1       -0.3407
     17 N         144.6270  141.7912  161.5676 N.ar    1  UNL1       -0.2128
     18 C         143.4195  141.1927  160.9091 C.ar    1  UNL1        0.1492
     19 N         142.8671  141.8058  159.6565 N.pl3   1  UNL1       -0.3413
     20 H         146.7496  141.3743  164.3008 H       1  UNL1        0.1438
     21 H         146.8170  142.5719  163.0888 H       1  UNL1        0.1438
     22 H         143.2970  142.6010  159.2666 H       1  UNL1        0.1438
     23 H         142.0745  141.4129  159.2243 H       1  UNL1        0.1438
     24 C         139.7760  142.9291  159.9186 C.3     1  UNL1        0.0628
     25 C         139.9350  144.0949  158.9880 C.3     1  UNL1        0.0273
     26 C         140.9566  145.1537  159.2800 C.3     1  UNL1        0.0896
     27 N         141.4230  145.3779  160.6879 N.am    1  UNL1       -0.3041
     28 C         140.4482  145.8172  161.7400 C.2     1  UNL1        0.2269
     29 O         139.0070  146.0322  161.3841 O.2     1  UNL1       -0.2747
     30 H         142.3689  145.2367  160.9214 H       1  UNL1        0.1494
     31 C         140.9146  146.0414  163.1478 C.3     1  UNL1        0.1113
     32 C         141.2753  144.8709  164.0138 C.ar    1  UNL1       -0.0129
     33 C         142.6873  144.3655  164.0418 C.ar    1  UNL1       -0.0007
     34 C         143.0480  143.1951  164.9078 C.ar    1  UNL1        0.0366
     35 C         141.9966  142.5300  165.7458 C.ar    1  UNL1        0.1390
     36 C         140.5846  143.0354  165.7178 C.ar    1  UNL1        0.0366
     37 C         140.2239  144.2058  164.8518 C.ar    1  UNL1       -0.0007
     38 O         142.3573  141.3595  166.6118 O.3     1  UNL1       -0.4706
     39 C         142.0411  139.9652  166.1581 C.3     1  UNL1        0.2320
     40 C         140.6438  139.4342  166.2841 C.ar    1  UNL1        0.0212
     41 C         139.7870  139.8455  167.4445 C.ar    1  UNL1       -0.0007
     42 C         138.3898  139.3145  167.5704 C.ar    1  UNL1       -0.0002
     43 C         137.8495  138.3722  166.5360 C.ar    1  UNL1       -0.0000
     44 C         138.7063  137.9609  165.3756 C.ar    1  UNL1       -0.0002
     45 C         140.1035  138.4919  165.2496 C.ar    1  UNL1       -0.0007
@<TRIPOS>UNITY_ATOM_ATTR
3 1
charge 1
@<TRIPOS>BOND
     1     2     3    1
     2     3     4    1
     3     3     1    1
     4     1    24    1
     5    24    25    1
     6    25    26    1
     7    26    27    1
     8    27    28   am
     9    28    29    2
    10    28    31    1
    11    31    32    1
    12    32    33   ar
    13    33    34   ar
    14    34    35   ar
    15    35    38    1
    16    38    39    1
    17    39    40    1
    18    40    41   ar
    19    41    42   ar
    20    42    43   ar
    21    43    44   ar
    22    44    45   ar
    23    35    36   ar
    24    36    37   ar
    25     3     5    1
    26     5     6    1
    27     6     7    1
    28     7     8   am
    29     8     9    2
    30     8    11    1
    31    11    12   ar
    32    12    13   ar
    33    13    14    1
    34    13    15   ar
    35    15    16    1
    36    15    17   ar
    37    17    18   ar
    38    18    19    1
    39    37    32   ar
    40    18    11   ar
    41    45    40   ar
    42    27    30    1
    43     7    10    1
    44    16    20    1
    45    16    21    1
    46    19    22    1
    47    19    23    1
@<TRIPOS>MOLECULE
*****
 45 47 0 0 0
SMALL
GASTEIGER

@<TRIPOS>ATOM
      1 C         144.4676  142.2113  160.3847 C.3     1  UNL1        0.1091
      2 C         143.9713  140.2078  160.8741 C.3     1  UNL1        0.1708
      3 N         144.0336  141.5005  161.6323 N.4     1  UNL1        0.3074
      4 C         144.0959  142.7932  162.3904 C.3     1  UNL1        0.1708
      5 C         143.5997  140.7897  162.8799 C.3     1  UNL1        0.1306
      6 C         143.7221  141.4695  164.2114 C.3     1  UNL1        0.1514
      7 N         142.9363  140.9659  165.3856 N.am    1  UNL1       -0.2944
      8 C         143.0235  141.6733  166.7055 C.2     1  UNL1        0.2666
      9 O         143.8966  142.8843  166.8511 O.2     1  UNL1       -0.2684
     10 H         142.3632  140.1711  165.2901 H       1  UNL1        0.1500
     11 C         142.2376  141.1697  167.8797 C.ar    1  UNL1        0.1664
     12 N         141.2806  142.0817  168.5885 N.ar    1  UNL1       -0.2237
     13 C         140.4947  141.5782  169.7627 C.ar    1  UNL1        0.1695
     14 CL        139.5377  142.4902  170.4714 Cl      1  UNL1       -0.0584
     15 C         140.6659  140.1626  170.2281 C.ar    1  UNL1        0.1555
     16 N         139.8800  139.6590  171.4024 N.pl3   1  UNL1       -0.3407
     17 N         141.6229  139.2505  169.5194 N.ar    1  UNL1       -0.2128
     18 C         142.4088  139.7541  168.3452 C.ar    1  UNL1        0.1492
     19 N         143.3658  138.8420  167.6365 N.pl3   1  UNL1       -0.3413
     20 H         139.2518  140.2576  171.8676 H       1  UNL1        0.1438
     21 H         139.9923  138.7298  171.7079 H       1  UNL1        0.1438
     22 H         143.4781  137.9129  167.9420 H       1  UNL1        0.1438
     23 H         143.8816  139.1725  166.8658 H       1  UNL1        0.1438
     24 C         143.5789  142.2156  159.1763 C.3     1  UNL1        0.0628
     25 C         143.0641  143.5137  158.6285 C.3     1  UNL1        0.0273
     26 C         141.6683  143.9611  158.9467 C.3     1  UNL1        0.0896
     27 N         141.2891  144.2866  160.3609 N.am    1  UNL1       -0.3041
     28 C         140.2886  145.3691  160.6390 C.2     1  UNL1        0.2269
     29 O         139.6673  146.1260  159.5027 O.2     1  UNL1       -0.2747
     30 H         141.6969  143.7898  161.1067 H       1  UNL1        0.1494
     31 C         139.9094  145.6947  162.0532 C.3     1  UNL1        0.1113
     32 C         139.6498  144.5894  163.0336 C.ar    1  UNL1       -0.0129
     33 C         138.5368  143.6144  162.7872 C.ar    1  UNL1       -0.0007
     34 C         138.2773  142.5092  163.7675 C.ar    1  UNL1        0.0366
     35 C         139.1307  142.3789  164.9942 C.ar    1  UNL1        0.1390
     36 C         140.2437  143.3539  165.2405 C.ar    1  UNL1        0.0366
     37 C         140.5032  144.4591  164.2602 C.ar    1  UNL1       -0.0007
     38 O         138.8711  141.2736  165.9745 O.3     1  UNL1       -0.4706
     39 C         138.3468  139.9529  165.4942 C.3     1  UNL1        0.2320
     40 C         139.2371  139.0312  164.7144 C.ar    1  UNL1        0.0212
     41 C         138.9095  138.7007  163.2884 C.ar    1  UNL1       -0.0007
     42 C         139.7998  137.7791  162.5087 C.ar    1  UNL1       -0.0002
     43 C         141.0176  137.1880  163.1549 C.ar    1  UNL1       -0.0000
     44 C         141.3451  137.5186  164.5809 C.ar    1  UNL1       -0.0002
     45 C         140.4549  138.4402  165.3606 C.ar    1  UNL1       -0.0007
@<TRIPOS>UNITY_ATOM_ATTR
3 1
charge 1
@<TRIPOS>BOND
     1     2     3    1
     2     3     4    1
     3     3     1    1
     4     1    24    1
     5    24    25    1
     6    25    26    1
     7    26    27    1
     8    27    28   am
     9    28    29    2
    10    28    31    1
    11    31    32    1
    12    32    33   ar
    13    33    34   ar
    14    34    35   ar
    15    35    38    1
    16    38    39    1
    17    39    40    1
    18    40    41   ar
    19    41    42   ar
    20    42    43   ar
    21    43    44   ar
    22    44    45   ar
    23    35    36   ar
    24    36    37   ar
    25     3     5    1
    26     5     6    1
    27     6     7    1
    28     7     8   am
    29     8     9    2
    30     8    11    1
    31    11    12   ar
    32    12    13   ar
    33    13    14    1
    34    13    15   ar
    35    15    16    1
    36    15    17   ar
    37    17    18   ar
    38    18    19    1
    39    37    32   ar
    40    18    11   ar
    41    45    40   ar
    42    27    30    1
    43     7    10    1
    44    16    20    1
    45    16    21    1
    46    19    22    1
    47    19    23    1
@<TRIPOS>MOLECULE
*****
 45 47 0 0 0
SMALL
GASTEIGER

@<TRIPOS>ATOM
      1 C         139.9724  145.3812  155.7746 C.3     1  UNL1        0.1091
      2 C         141.1594  143.6325  155.5927 C.3     1  UNL1        0.1708
      3 N         139.6906  143.9090  155.7199 N.4     1  UNL1        0.3074
      4 C         138.2218  144.1854  155.8471 C.3     1  UNL1        0.1708
      5 C         139.4088  142.4366  155.6652 C.3     1  UNL1        0.1306
      6 C         139.9191  141.5345  156.7495 C.3     1  UNL1        0.1514
      7 N         139.6324  141.8531  158.1870 N.am    1  UNL1       -0.2944
      8 C         138.5614  141.1031  158.9222 C.2     1  UNL1        0.2666
      9 O         137.7772  140.0345  158.2200 O.2     1  UNL1       -0.2684
     10 H         140.1471  142.5544  158.6478 H       1  UNL1        0.1500
     11 C         138.2748  141.4217  160.3597 C.ar    1  UNL1        0.1664
     12 N         138.2718  142.8475  160.8257 N.ar    1  UNL1       -0.2237
     13 C         137.9852  143.1661  162.2632 C.ar    1  UNL1        0.1695
     14 CL        137.9823  144.5919  162.7292 Cl      1  UNL1       -0.0584
     15 C         137.7014  142.0590  163.2346 C.ar    1  UNL1        0.1555
     16 N         137.4148  142.3776  164.6721 N.pl3   1  UNL1       -0.3407
     17 N         137.7044  140.6332  162.7686 N.ar    1  UNL1       -0.2128
     18 C         137.9910  140.3146  161.3311 C.ar    1  UNL1        0.1492
     19 N         137.9939  138.8888  160.8651 N.pl3   1  UNL1       -0.3413
     20 H         137.4128  143.3134  164.9780 H       1  UNL1        0.1438
     21 H         137.2285  141.6510  165.3097 H       1  UNL1        0.1438
     22 H         137.8077  138.1622  161.5027 H       1  UNL1        0.1438
     23 H         138.1821  138.6797  159.9217 H       1  UNL1        0.1438
     24 C         139.9231  146.1059  157.0870 C.3     1  UNL1        0.0628
     25 C         140.9652  145.8369  158.1319 C.3     1  UNL1        0.0273
     26 C         140.5526  145.4251  159.5140 C.3     1  UNL1        0.0896
     27 N         141.5675  145.3803  160.6175 N.am    1  UNL1       -0.3041
     28 C         142.1264  144.0637  161.0696 C.2     1  UNL1        0.2269
     29 O         141.6703  142.7919  160.4180 O.2     1  UNL1       -0.2747
     30 H         141.8668  146.2150  161.0452 H       1  UNL1        0.1494
     31 C         143.1413  144.0189  162.1731 C.3     1  UNL1        0.1113
     32 C         142.7527  143.5087  163.5292 C.ar    1  UNL1       -0.0129
     33 C         143.8082  143.0282  164.4805 C.ar    1  UNL1       -0.0007
     34 C         143.4196  142.5181  165.8365 C.ar    1  UNL1        0.0366
     35 C         141.9756  142.4885  166.2412 C.ar    1  UNL1        0.1390
     36 C         140.9201  142.9690  165.2899 C.ar    1  UNL1        0.0366
     37 C         141.3087  143.4792  163.9339 C.ar    1  UNL1       -0.0007
     38 O         141.5870  141.9784  167.5973 O.3     1  UNL1       -0.4706
     39 C         141.3927  140.5075  167.8179 C.3     1  UNL1        0.2320
     40 C         140.5723  139.7060  166.8511 C.ar    1  UNL1        0.0212
     41 C         141.2493  138.8725  165.8038 C.ar    1  UNL1       -0.0007
     42 C         140.4289  138.0711  164.8371 C.ar    1  UNL1       -0.0002
     43 C         138.9314  138.1032  164.9176 C.ar    1  UNL1       -0.0000
     44 C         138.2543  138.9367  165.9649 C.ar    1  UNL1       -0.0002
     45 C         139.0748  139.7381  166.9316 C.ar    1  UNL1       -0.0007
@<TRIPOS>UNITY_ATOM_ATTR
3 1
charge 1
@<TRIPOS>BOND
     1     2     3    1
     2     3     4    1
     3     3     1    1
     4     1    24    1
     5    24    25    1
     6    25    26    1
     7    26    27    1
     8    27    28   am
     9    28    29    2
    10    28    31    1
    11    31    32    1
    12    32    33   ar
    13    33    34   ar
    14    34    35   ar
    15    35    38    1
    16    38    39    1
    17    39    40    1
    18    40    41   ar
    19    41    42   ar
    20    42    43   ar
    21    43    44   ar
    22    44    45   ar
    23    35    36   ar
    24    36    37   ar
    25     3     5    1
    26     5     6    1
    27     6     7    1
    28     7     8   am
    29     8     9    2
    30     8    11    1
    31    11    12   ar
    32    12    13   ar
    33    13    14    1
    34    13    15   ar
    35    15    16    1
    36    15    17   ar
    37    17    18   ar
    38    18    19    1
    39    37    32   ar
    40    18    11   ar
    41    45    40   ar
    42    27    30    1
    43     7    10    1
    44    16    20    1
    45    16    21    1
    46    19    22    1
    47    19    23    1
@<TRIPOS>MOLECULE
*****
 45 47 0 0 0
SMALL
GASTEIGER

@<TRIPOS>ATOM
      1 C         143.9645  140.4683  159.8942 C.3     1  UNL1        0.1091
      2 C         144.1887  138.6225  160.9153 C.3     1  UNL1        0.1708
      3 N         143.7763  140.0096  161.3099 N.4     1  UNL1        0.3074
      4 C         143.3638  141.3967  161.7045 C.3     1  UNL1        0.1708
      5 C         143.5880  139.5510  162.7257 C.3     1  UNL1        0.1306
      6 C         143.6481  140.5426  163.8495 C.3     1  UNL1        0.1514
      7 N         142.9565  140.2480  165.1475 N.am    1  UNL1       -0.2944
      8 C         143.0507  141.2209  166.2853 C.2     1  UNL1        0.2666
      9 O         143.8364  142.4886  166.1250 O.2     1  UNL1       -0.2684
     10 H         142.4408  139.4160  165.2527 H       1  UNL1        0.1500
     11 C         142.3591  140.9262  167.5833 C.ar    1  UNL1        0.1664
     12 N         141.4669  141.9572  168.2088 N.ar    1  UNL1       -0.2237
     13 C         140.7754  141.6625  169.5068 C.ar    1  UNL1        0.1695
     14 CL        139.8833  142.6935  170.1322 Cl      1  UNL1       -0.0584
     15 C         140.9759  140.3369  170.1793 C.ar    1  UNL1        0.1555
     16 N         140.2842  140.0421  171.4774 N.pl3   1  UNL1       -0.3407
     17 N         141.8680  139.3059  169.5539 N.ar    1  UNL1       -0.2128
     18 C         142.5596  139.6005  168.2559 C.ar    1  UNL1        0.1492
     19 N         143.4517  138.5695  167.6304 N.pl3   1  UNL1       -0.3413
     20 H         139.6987  140.7188  171.8879 H       1  UNL1        0.1438
     21 H         140.4158  139.1720  171.9188 H       1  UNL1        0.1438
     22 H         143.5832  137.6994  168.0718 H       1  UNL1        0.1438
     23 H         143.9056  138.7629  166.7785 H       1  UNL1        0.1438
     24 C         143.2247  139.7879  158.7808 C.3     1  UNL1        0.0628
     25 C         141.7276  139.8601  158.7210 C.3     1  UNL1        0.0273
     26 C         140.9031  138.6692  159.1107 C.3     1  UNL1        0.0896
     27 N         139.7035  138.8442  159.9941 N.am    1  UNL1       -0.3041
     28 C         139.6962  138.2561  161.3741 C.2     1  UNL1        0.2269
     29 O         140.8884  137.4932  161.8706 O.2     1  UNL1       -0.2747
     30 H         138.9211  139.3449  159.6682 H       1  UNL1        0.1494
     31 C         138.4966  138.4311  162.2575 C.3     1  UNL1        0.1113
     32 C         138.2439  139.7496  162.9267 C.ar    1  UNL1       -0.0129
     33 C         138.5659  139.9266  164.3809 C.ar    1  UNL1       -0.0007
     34 C         138.3132  141.2450  165.0500 C.ar    1  UNL1        0.0366
     35 C         137.7384  142.3866  164.2648 C.ar    1  UNL1        0.1390
     36 C         137.4163  142.2096  162.8106 C.ar    1  UNL1        0.0366
     37 C         137.6691  140.8912  162.1415 C.ar    1  UNL1       -0.0007
     38 O         137.4856  143.7051  164.9340 O.3     1  UNL1       -0.4706
     39 C         138.5886  144.7160  165.0399 C.3     1  UNL1        0.2320
     40 C         139.6890  144.7351  164.0206 C.ar    1  UNL1        0.0212
     41 C         141.0394  144.1801  164.3642 C.ar    1  UNL1       -0.0007
     42 C         142.1397  144.1992  163.3449 C.ar    1  UNL1       -0.0002
     43 C         141.8895  144.7734  161.9819 C.ar    1  UNL1       -0.0000
     44 C         140.5390  145.3284  161.6383 C.ar    1  UNL1       -0.0002
     45 C         139.4388  145.3093  162.6576 C.ar    1  UNL1       -0.0007
@<TRIPOS>UNITY_ATOM_ATTR
3 1
charge 1
@<TRIPOS>BOND
     1     2     3    1
     2     3     4    1
     3     3     1    1
     4     1    24    1
     5    24    25    1
     6    25    26    1
     7    26    27    1
     8    27    28   am
     9    28    29    2
    10    28    31    1
    11    31    32    1
    12    32    33   ar
    13    33    34   ar
    14    34    35   ar
    15    35    38    1
    16    38    39    1
    17    39    40    1
    18    40    41   ar
    19    41    42   ar
    20    42    43   ar
    21    43    44   ar
    22    44    45   ar
    23    35    36   ar
    24    36    37   ar
    25     3     5    1
    26     5     6    1
    27     6     7    1
    28     7     8   am
    29     8     9    2
    30     8    11    1
    31    11    12   ar
    32    12    13   ar
    33    13    14    1
    34    13    15   ar
    35    15    16    1
    36    15    17   ar
    37    17    18   ar
    38    18    19    1
    39    37    32   ar
    40    18    11   ar
    41    45    40   ar
    42    27    30    1
    43     7    10    1
    44    16    20    1
    45    16    21    1
    46    19    22    1
    47    19    23    1
@<TRIPOS>MOLECULE
*****
 45 47 0 0 0
SMALL
GASTEIGER

@<TRIPOS>ATOM
      1 C         141.1861  144.0611  162.5265 C.3     1  UNL1        0.1091
      2 C         142.2337  143.8051  160.6998 C.3     1  UNL1        0.1708
      3 N         141.1618  144.7347  161.1865 N.4     1  UNL1        0.3074
      4 C         140.0899  145.6642  161.6732 C.3     1  UNL1        0.1708
      5 C         141.1375  145.4083  159.8464 C.3     1  UNL1        0.1306
      6 C         140.1952  144.9282  158.7827 C.3     1  UNL1        0.1514
      7 N         140.3204  143.5341  158.2435 N.am    1  UNL1       -0.2944
      8 C         139.3487  142.4745  158.6713 C.2     1  UNL1        0.2666
      9 O         138.2520  142.8089  159.6384 O.2     1  UNL1       -0.2684
     10 H         141.0402  143.3146  157.6087 H       1  UNL1        0.1500
     11 C         139.4739  141.0803  158.1321 C.ar    1  UNL1        0.1664
     12 N         140.6928  140.2629  158.4421 N.ar    1  UNL1       -0.2237
     13 C         140.8180  138.8688  157.9029 C.ar    1  UNL1        0.1695
     14 CL        142.0369  138.0514  158.2129 Cl      1  UNL1       -0.0584
     15 C         139.7243  138.2922  157.0536 C.ar    1  UNL1        0.1555
     16 N         139.8494  136.8980  156.5144 N.pl3   1  UNL1       -0.3407
     17 N         138.5054  139.1096  156.7436 N.ar    1  UNL1       -0.2128
     18 C         138.3802  140.5037  157.2828 C.ar    1  UNL1        0.1492
     19 N         137.1613  141.3211  156.9728 N.pl3   1  UNL1       -0.3413
     20 H         140.6494  136.3615  156.7178 H       1  UNL1        0.1438
     21 H         139.1316  136.5195  155.9570 H       1  UNL1        0.1438
     22 H         136.4434  140.9426  156.4155 H       1  UNL1        0.1438
     23 H         137.0791  142.2361  157.3268 H       1  UNL1        0.1438
     24 C         141.6109  144.8278  163.7437 C.3     1  UNL1        0.0628
     25 C         143.0531  145.1938  163.9340 C.3     1  UNL1        0.0273
     26 C         144.1315  144.2605  163.4692 C.3     1  UNL1        0.0896
     27 N         144.2726  142.9056  164.0972 N.am    1  UNL1       -0.3041
     28 C         145.0064  141.8160  163.3729 C.2     1  UNL1        0.2269
     29 O         145.5990  142.0814  162.0208 O.2     1  UNL1       -0.2747
     30 H         143.8836  142.7315  164.9846 H       1  UNL1        0.1494
     31 C         145.1475  140.4612  164.0009 C.3     1  UNL1        0.1113
     32 C         143.9366  139.6001  164.2068 C.ar    1  UNL1       -0.0129
     33 C         143.3338  139.4682  165.5740 C.ar    1  UNL1       -0.0007
     34 C         142.1229  138.6072  165.7798 C.ar    1  UNL1        0.0366
     35 C         141.5149  137.8781  164.6185 C.ar    1  UNL1        0.1390
     36 C         142.1176  138.0100  163.2513 C.ar    1  UNL1        0.0366
     37 C         143.3285  138.8710  163.0455 C.ar    1  UNL1       -0.0007
     38 O         140.3039  137.0170  164.8244 O.3     1  UNL1       -0.4706
     39 C         138.9732  137.6492  165.1062 C.3     1  UNL1        0.2320
     40 C         138.5959  138.9351  164.4321 C.ar    1  UNL1        0.0212
     41 C         138.4671  140.1942  165.2370 C.ar    1  UNL1       -0.0007
     42 C         138.0898  141.4799  164.5629 C.ar    1  UNL1       -0.0002
     43 C         137.8414  141.5065  163.0838 C.ar    1  UNL1       -0.0000
     44 C         137.9702  140.2474  162.2789 C.ar    1  UNL1       -0.0002
     45 C         138.3475  138.9617  162.9530 C.ar    1  UNL1       -0.0007
@<TRIPOS>UNITY_ATOM_ATTR
3 1
charge 1
@<TRIPOS>BOND
     1     2     3    1
     2     3     4    1
     3     3     1    1
     4     1    24    1
     5    24    25    1
     6    25    26    1
     7    26    27    1
     8    27    28   am
     9    28    29    2
    10    28    31    1
    11    31    32    1
    12    32    33   ar
    13    33    34   ar
    14    34    35   ar
    15    35    38    1
    16    38    39    1
    17    39    40    1
    18    40    41   ar
    19    41    42   ar
    20    42    43   ar
    21    43    44   ar
    22    44    45   ar
    23    35    36   ar
    24    36    37   ar
    25     3     5    1
    26     5     6    1
    27     6     7    1
    28     7     8   am
    29     8     9    2
    30     8    11    1
    31    11    12   ar
    32    12    13   ar
    33    13    14    1
    34    13    15   ar
    35    15    16    1
    36    15    17   ar
    37    17    18   ar
    38    18    19    1
    39    37    32   ar
    40    18    11   ar
    41    45    40   ar
    42    27    30    1
    43     7    10    1
    44    16    20    1
    45    16    21    1
    46    19    22    1
    47    19    23    1
