@<TRIPOS>MOLECULE
*****
 41 44 0 0 0
SMALL
GASTEIGER

@<TRIPOS>ATOM
      1 C         143.2039  142.7733  165.8876 C.ar    1  UNL1        0.2219
      2 N         143.6969  142.8094  167.3039 N.ar    1  UNL1       -0.2123
      3 C         143.0722  141.9207  168.3383 C.ar    1  UNL1        0.1003
      4 C         141.9546  140.9959  167.9565 C.ar    1  UNL1        0.0291
      5 C         141.3299  140.1073  168.9909 C.3     1  UNL1        0.0356
      6 C         141.4617  140.9598  166.5403 C.ar    1  UNL1        0.1325
      7 N         142.0864  141.8485  165.5058 N.ar    1  UNL1       -0.1988
      8 N         143.8286  143.6619  164.8532 N.pl3   1  UNL1       -0.2801
      9 H         144.6817  144.1149  165.0437 H       1  UNL1        0.1552
     10 C         140.1222  145.9029  161.9825 C.3     1  UNL1        0.0307
     11 C         141.3002  144.9810  162.0932 C.ar    1  UNL1       -0.0244
     12 C         141.9754  144.7824  163.4178 C.ar    1  UNL1        0.0132
     13 C         143.1534  143.8605  163.5284 C.ar    1  UNL1        0.0846
     14 C         143.6563  143.1371  162.3145 C.ar    1  UNL1        0.1513
     15 C         142.9811  143.3356  160.9899 C.ar    1  UNL1        0.0336
     16 C         141.8031  144.2576  160.8792 C.ar    1  UNL1       -0.0233
     17 C         141.1279  144.4561  159.5545 C.3     1  UNL1        0.0249
     18 C         141.5338  145.5971  158.6694 C.3     1  UNL1        0.0217
     19 C         140.8587  145.7957  157.3448 C.3     1  UNL1        0.0725
     20 N         139.7776  144.8532  156.9051 N.3     1  UNL1       -0.2715
     21 C         139.1025  145.0518  155.5805 C.3     1  UNL1        0.0896
     22 C         139.3718  143.7122  157.7902 C.3     1  UNL1        0.0725
     23 C         140.0470  143.5137  159.1149 C.3     1  UNL1        0.0217
     24 O         144.8343  142.2151  162.4251 O.3     1  UNL1       -0.4779
     25 C         144.6302  140.7806  162.8129 C.3     1  UNL1        0.1662
     26 C         145.2017  140.2628  164.0995 C.3     1  UNL1        0.0472
     27 C         143.8545  139.8637  161.9141 C.3     1  UNL1        0.0472
     28 N         140.3441  140.0350  166.1584 N.pl3   1  UNL1       -0.2971
     29 H         139.5507  139.9568  166.7361 H       1  UNL1        0.1536
     30 C         140.4352  139.2295  164.8964 C.ar    1  UNL1        0.0666
     31 C         141.0829  137.8766  164.9153 C.ar    1  UNL1        0.0159
     32 C         141.1740  137.0711  163.6533 C.ar    1  UNL1        0.0014
     33 C         140.6175  137.6183  162.3723 C.ar    1  UNL1        0.0014
     34 C         139.9698  138.9712  162.3534 C.ar    1  UNL1        0.0196
     35 C         139.8787  139.7767  163.6155 C.ar    1  UNL1        0.1189
     36 S         139.2310  141.1296  163.5966 S.O2    1  UNL1        0.0082
     37 O         140.3232  141.6400  162.7041 O.2     1  UNL1       -0.1686
     38 O         138.1389  140.6192  164.4892 O.2     1  UNL1       -0.1686
     39 C         138.5834  142.4824  163.5777 C.3     1  UNL1        0.1340
     40 C         137.8364  142.9394  162.3598 C.3     1  UNL1        0.0257
     41 C         138.6826  143.3783  164.7767 C.3     1  UNL1        0.0257
@<TRIPOS>BOND
     1    10    11    1
     2    11    12   ar
     3    12    13   ar
     4    13     8    1
     5     8     1    1
     6     1     2   ar
     7     2     3   ar
     8     3     4   ar
     9     4     5    1
    10     4     6   ar
    11     6    28    1
    12    28    30    1
    13    30    31   ar
    14    31    32   ar
    15    32    33   ar
    16    33    34   ar
    17    34    35   ar
    18    35    36    1
    19    36    37    2
    20    36    38    2
    21    36    39    1
    22    39    40    1
    23    39    41    1
    24     6     7   ar
    25    13    14   ar
    26    14    24    1
    27    24    25    1
    28    25    26    1
    29    25    27    1
    30    14    15   ar
    31    15    16   ar
    32    16    17    1
    33    17    18    1
    34    18    19    1
    35    19    20    1
    36    20    21    1
    37    20    22    1
    38    22    23    1
    39    16    11   ar
    40    23    17    1
    41     7     1   ar
    42    35    30   ar
    43     8     9    1
    44    28    29    1
@<TRIPOS>MOLECULE
*****
 41 44 0 0 0
SMALL
GASTEIGER

@<TRIPOS>ATOM
      1 C         142.4815  138.3555  161.1351 C.ar    1  UNL1        0.2219
      2 N         142.4988  137.6750  159.7984 N.ar    1  UNL1       -0.2123
      3 C         143.0017  138.4080  158.5902 C.ar    1  UNL1        0.1003
      4 C         143.4873  139.8214  158.7186 C.ar    1  UNL1        0.0291
      5 C         143.9903  140.5544  157.5104 C.3     1  UNL1        0.0356
      6 C         143.4700  140.5019  160.0553 C.ar    1  UNL1        0.1325
      7 N         142.9671  139.7689  161.2635 N.ar    1  UNL1       -0.1988
      8 N         141.9785  137.6226  162.3433 N.pl3   1  UNL1       -0.2801
      9 H         141.8823  136.6431  162.3202 H       1  UNL1        0.1552
     10 C         143.1052  139.0872  167.1998 C.3     1  UNL1        0.0307
     11 C         142.1856  139.1144  166.0151 C.ar    1  UNL1       -0.0244
     12 C         142.5418  138.3549  164.7716 C.ar    1  UNL1        0.0132
     13 C         141.6222  138.3821  163.5869 C.ar    1  UNL1        0.0846
     14 C         140.3464  139.1687  163.6456 C.ar    1  UNL1        0.1513
     15 C         139.9902  139.9282  164.8891 C.ar    1  UNL1        0.0336
     16 C         140.9098  139.9010  166.0738 C.ar    1  UNL1       -0.0233
     17 C         140.5535  140.6605  167.3174 C.3     1  UNL1        0.0249
     18 C         140.9695  142.0940  167.4657 C.3     1  UNL1        0.0217
     19 C         140.6133  142.8535  168.7092 C.3     1  UNL1        0.0725
     20 N         139.8410  142.1795  169.8043 N.3     1  UNL1       -0.2715
     21 C         139.4847  142.9390  171.0478 C.3     1  UNL1        0.0896
     22 C         139.4249  140.7460  169.6560 C.3     1  UNL1        0.0725
     23 C         139.7812  139.9865  168.4124 C.3     1  UNL1        0.0217
     24 O         139.4269  139.1959  162.4608 O.3     1  UNL1       -0.4779
     25 C         138.9029  140.5045  161.9480 C.3     1  UNL1        0.1662
     26 C         137.5354  140.9734  162.3481 C.3     1  UNL1        0.0472
     27 C         139.7463  141.3441  161.0350 C.3     1  UNL1        0.0472
     28 N         143.9556  141.9153  160.1837 N.pl3   1  UNL1       -0.2971
     29 H         144.9169  142.1142  160.1092 H       1  UNL1        0.1536
     30 C         142.9765  143.0256  160.4256 C.ar    1  UNL1        0.0666
     31 C         142.2221  143.6242  159.2756 C.ar    1  UNL1        0.0159
     32 C         141.2431  144.7345  159.5175 C.ar    1  UNL1        0.0014
     33 C         141.0184  145.2464  160.9095 C.ar    1  UNL1        0.0014
     34 C         141.7728  144.6478  162.0596 C.ar    1  UNL1        0.0196
     35 C         142.7519  143.5374  161.8176 C.ar    1  UNL1        0.1189
     36 S         143.5063  142.9389  162.9676 S.O2    1  UNL1        0.0082
     37 O         142.2544  142.2568  163.4339 O.2     1  UNL1       -0.1686
     38 O         144.7583  143.6210  162.5013 O.2     1  UNL1       -0.1686
     39 C         144.2608  142.3403  164.1177 C.3     1  UNL1        0.1340
     40 C         143.9627  142.7804  165.5204 C.3     1  UNL1        0.0257
     41 C         145.3132  141.3018  163.8650 C.3     1  UNL1        0.0257
@<TRIPOS>BOND
     1    10    11    1
     2    11    12   ar
     3    12    13   ar
     4    13     8    1
     5     8     1    1
     6     1     2   ar
     7     2     3   ar
     8     3     4   ar
     9     4     5    1
    10     4     6   ar
    11     6    28    1
    12    28    30    1
    13    30    31   ar
    14    31    32   ar
    15    32    33   ar
    16    33    34   ar
    17    34    35   ar
    18    35    36    1
    19    36    37    2
    20    36    38    2
    21    36    39    1
    22    39    40    1
    23    39    41    1
    24     6     7   ar
    25    13    14   ar
    26    14    24    1
    27    24    25    1
    28    25    26    1
    29    25    27    1
    30    14    15   ar
    31    15    16   ar
    32    16    17    1
    33    17    18    1
    34    18    19    1
    35    19    20    1
    36    20    21    1
    37    20    22    1
    38    22    23    1
    39    16    11   ar
    40    23    17    1
    41     7     1   ar
    42    35    30   ar
    43     8     9    1
    44    28    29    1
@<TRIPOS>MOLECULE
*****
 41 44 0 0 0
SMALL
GASTEIGER

@<TRIPOS>ATOM
      1 C         141.7985  144.5802  160.2192 C.ar    1  UNL1        0.2219
      2 N         142.1376  145.3154  158.9564 N.ar    1  UNL1       -0.2123
      3 C         141.9029  144.6664  157.6246 C.ar    1  UNL1        0.1003
      4 C         141.3290  143.2822  157.5556 C.ar    1  UNL1        0.0291
      5 C         141.0942  142.6332  156.2238 C.3     1  UNL1        0.0356
      6 C         140.9899  142.5471  158.8183 C.ar    1  UNL1        0.1325
      7 N         141.2247  143.1961  160.1501 N.ar    1  UNL1       -0.1988
      8 N         142.0333  145.2292  161.5510 N.pl3   1  UNL1       -0.2801
      9 H         142.4322  146.1281  161.5971 H       1  UNL1        0.1552
     10 C         138.5179  144.0607  165.1948 C.3     1  UNL1        0.0307
     11 C         139.9027  143.9243  164.6345 C.ar    1  UNL1       -0.0244
     12 C         140.2756  144.6449  163.3729 C.ar    1  UNL1        0.0132
     13 C         141.6604  144.5085  162.8126 C.ar    1  UNL1        0.0846
     14 C         142.6721  143.6515  163.5139 C.ar    1  UNL1        0.1513
     15 C         142.2992  142.9309  164.7755 C.ar    1  UNL1        0.0336
     16 C         140.9144  143.0673  165.3358 C.ar    1  UNL1       -0.0233
     17 C         140.5415  142.3466  166.5974 C.3     1  UNL1        0.0249
     18 C         140.6859  143.0325  167.9236 C.3     1  UNL1        0.0217
     19 C         140.3130  142.3120  169.1852 C.3     1  UNL1        0.0725
     20 N         139.7956  140.9054  169.1206 N.3     1  UNL1       -0.2715
     21 C         139.4227  140.1848  170.3822 C.3     1  UNL1        0.0896
     22 C         139.6513  140.2195  167.7945 C.3     1  UNL1        0.0725
     23 C         140.0242  140.9402  166.5328 C.3     1  UNL1        0.0217
     24 O         144.0569  143.5151  162.9536 O.3     1  UNL1       -0.4779
     25 C         144.6353  142.1533  162.7069 C.3     1  UNL1        0.1662
     26 C         145.7579  141.6487  163.5644 C.3     1  UNL1        0.0472
     27 C         144.0912  141.2961  161.6027 C.3     1  UNL1        0.0472
     28 N         140.4160  141.1629  158.7493 N.pl3   1  UNL1       -0.2971
     29 H         139.5781  141.0013  158.2582 H       1  UNL1        0.1536
     30 C         141.1187  140.0249  159.4284 C.ar    1  UNL1        0.0666
     31 C         142.2221  139.2955  158.7210 C.ar    1  UNL1        0.0159
     32 C         142.9248  138.1575  159.4001 C.ar    1  UNL1        0.0014
     33 C         142.5240  137.7489  160.7867 C.ar    1  UNL1        0.0014
     34 C         141.4206  138.4783  161.4941 C.ar    1  UNL1        0.0196
     35 C         140.7179  139.6163  160.8149 C.ar    1  UNL1        0.1189
     36 S         139.6145  140.3457  161.5223 S.O2    1  UNL1        0.0082
     37 O         140.6028  140.8736  162.5196 O.2     1  UNL1       -0.1686
     38 O         138.6262  139.8179  160.5250 O.2     1  UNL1       -0.1686
     39 C         138.5110  141.0752  162.2297 C.3     1  UNL1        0.1340
     40 C         137.9429  140.5228  163.5034 C.3     1  UNL1        0.0257
     41 C         137.9757  142.3568  161.6634 C.3     1  UNL1        0.0257
@<TRIPOS>BOND
     1    10    11    1
     2    11    12   ar
     3    12    13   ar
     4    13     8    1
     5     8     1    1
     6     1     2   ar
     7     2     3   ar
     8     3     4   ar
     9     4     5    1
    10     4     6   ar
    11     6    28    1
    12    28    30    1
    13    30    31   ar
    14    31    32   ar
    15    32    33   ar
    16    33    34   ar
    17    34    35   ar
    18    35    36    1
    19    36    37    2
    20    36    38    2
    21    36    39    1
    22    39    40    1
    23    39    41    1
    24     6     7   ar
    25    13    14   ar
    26    14    24    1
    27    24    25    1
    28    25    26    1
    29    25    27    1
    30    14    15   ar
    31    15    16   ar
    32    16    17    1
    33    17    18    1
    34    18    19    1
    35    19    20    1
    36    20    21    1
    37    20    22    1
    38    22    23    1
    39    16    11   ar
    40    23    17    1
    41     7     1   ar
    42    35    30   ar
    43     8     9    1
    44    28    29    1
@<TRIPOS>MOLECULE
*****
 41 44 0 0 0
SMALL
GASTEIGER

@<TRIPOS>ATOM
      1 C         141.8144  144.4618  160.3454 C.ar    1  UNL1        0.2219
      2 N         141.6945  145.2861  159.0978 N.ar    1  UNL1       -0.2123
      3 C         141.2779  144.6405  157.8095 C.ar    1  UNL1        0.1003
      4 C         140.9814  143.1706  157.7688 C.ar    1  UNL1        0.0291
      5 C         140.5648  142.5250  156.4805 C.3     1  UNL1        0.0356
      6 C         141.1013  142.3464  159.0163 C.ar    1  UNL1        0.1325
      7 N         141.5178  142.9920  160.3046 N.ar    1  UNL1       -0.1988
      8 N         142.2309  145.1074  161.6337 N.pl3   1  UNL1       -0.2801
      9 H         142.4277  146.0716  161.6600 H       1  UNL1        0.1552
     10 C         145.0469  142.0785  164.7795 C.3     1  UNL1        0.0307
     11 C         143.7556  142.7693  164.4548 C.ar    1  UNL1       -0.0244
     12 C         143.6389  143.5929  163.2066 C.ar    1  UNL1        0.0132
     13 C         142.3476  144.2837  162.8819 C.ar    1  UNL1        0.0846
     14 C         141.1731  144.1509  163.8054 C.ar    1  UNL1        0.1513
     15 C         141.2899  143.3273  165.0536 C.ar    1  UNL1        0.0336
     16 C         142.5811  142.6365  165.3783 C.ar    1  UNL1       -0.0233
     17 C         142.6979  141.8128  166.6265 C.3     1  UNL1        0.0249
     18 C         142.4703  140.3312  166.5714 C.3     1  UNL1        0.0217
     19 C         142.5870  139.5076  167.8196 C.3     1  UNL1        0.0725
     20 N         142.9313  140.1655  169.1229 N.3     1  UNL1       -0.2715
     21 C         143.0480  139.3419  170.3711 C.3     1  UNL1        0.0896
     22 C         143.1588  141.6472  169.1780 C.3     1  UNL1        0.0725
     23 C         143.0421  142.4708  167.9298 C.3     1  UNL1        0.0217
     24 O         139.8819  144.8417  163.4807 O.3     1  UNL1       -0.4779
     25 C         138.6059  144.0557  163.4176 C.3     1  UNL1        0.1662
     26 C         138.2794  143.2528  162.1934 C.3     1  UNL1        0.0472
     27 C         137.6565  144.0724  164.5788 C.3     1  UNL1        0.0472
     28 N         140.8047  140.8765  158.9755 N.pl3   1  UNL1       -0.2971
     29 H         141.2800  140.2960  158.3381 H       1  UNL1        0.1536
     30 C         139.7840  140.2913  159.9059 C.ar    1  UNL1        0.0666
     31 C         138.3354  140.2774  159.5171 C.ar    1  UNL1        0.0159
     32 C         137.3147  139.6922  160.4475 C.ar    1  UNL1        0.0014
     33 C         137.7427  139.1207  161.7667 C.ar    1  UNL1        0.0014
     34 C         139.1914  139.1346  162.1555 C.ar    1  UNL1        0.0196
     35 C         140.2120  139.7199  161.2250 C.ar    1  UNL1        0.1189
     36 S         141.6607  139.7337  161.6138 S.O2    1  UNL1        0.0082
     37 O         141.9639  138.7541  160.5191 O.2     1  UNL1       -0.1686
     38 O         141.3575  140.7134  162.7085 O.2     1  UNL1       -0.1686
     39 C         143.1094  139.7476  162.0026 C.3     1  UNL1        0.1340
     40 C         143.5655  139.0047  163.2234 C.3     1  UNL1        0.0257
     41 C         144.1020  140.5044  161.1708 C.3     1  UNL1        0.0257
@<TRIPOS>BOND
     1    10    11    1
     2    11    12   ar
     3    12    13   ar
     4    13     8    1
     5     8     1    1
     6     1     2   ar
     7     2     3   ar
     8     3     4   ar
     9     4     5    1
    10     4     6   ar
    11     6    28    1
    12    28    30    1
    13    30    31   ar
    14    31    32   ar
    15    32    33   ar
    16    33    34   ar
    17    34    35   ar
    18    35    36    1
    19    36    37    2
    20    36    38    2
    21    36    39    1
    22    39    40    1
    23    39    41    1
    24     6     7   ar
    25    13    14   ar
    26    14    24    1
    27    24    25    1
    28    25    26    1
    29    25    27    1
    30    14    15   ar
    31    15    16   ar
    32    16    17    1
    33    17    18    1
    34    18    19    1
    35    19    20    1
    36    20    21    1
    37    20    22    1
    38    22    23    1
    39    16    11   ar
    40    23    17    1
    41     7     1   ar
    42    35    30   ar
    43     8     9    1
    44    28    29    1
@<TRIPOS>MOLECULE
*****
 41 44 0 0 0
SMALL
GASTEIGER

@<TRIPOS>ATOM
      1 C         139.0099  138.6073  164.6681 C.ar    1  UNL1        0.2219
      2 N         138.2487  138.0812  165.8487 N.ar    1  UNL1       -0.2123
      3 C         138.4077  138.7284  167.1926 C.ar    1  UNL1        0.1003
      4 C         139.3279  139.9017  167.3557 C.ar    1  UNL1        0.0291
      5 C         139.4869  140.5489  168.6996 C.3     1  UNL1        0.0356
      6 C         140.0891  140.4278  166.1752 C.ar    1  UNL1        0.1325
      7 N         139.9301  139.7806  164.8314 N.ar    1  UNL1       -0.1988
      8 N         138.8509  137.9601  163.3243 N.pl3   1  UNL1       -0.2801
      9 H         138.1269  137.3103  163.1735 H       1  UNL1        0.1552
     10 C         143.4453  137.3564  160.9733 C.3     1  UNL1        0.0307
     11 C         142.0924  138.0011  161.0348 C.ar    1  UNL1       -0.0244
     12 C         141.1482  137.6583  162.1488 C.ar    1  UNL1        0.0132
     13 C         139.7952  138.3030  162.2103 C.ar    1  UNL1        0.0846
     14 C         139.3864  139.2905  161.1579 C.ar    1  UNL1        0.1513
     15 C         140.3306  139.6333  160.0439 C.ar    1  UNL1        0.0336
     16 C         141.6836  138.9886  159.9824 C.ar    1  UNL1       -0.0233
     17 C         142.6278  139.3315  158.8684 C.3     1  UNL1        0.0249
     18 C         143.5797  140.4809  159.0191 C.3     1  UNL1        0.0217
     19 C         144.5239  140.8238  157.9052 C.3     1  UNL1        0.0725
     20 N         144.5162  140.0173  156.6404 N.3     1  UNL1       -0.2715
     21 C         145.4604  140.3602  155.5265 C.3     1  UNL1        0.0896
     22 C         143.5643  138.8679  156.4897 C.3     1  UNL1        0.0725
     23 C         142.6201  138.5250  157.6037 C.3     1  UNL1        0.0217
     24 O         138.0334  139.9352  161.2194 O.3     1  UNL1       -0.4779
     25 C         137.8866  141.3187  161.7800 C.3     1  UNL1        0.1662
     26 C         138.3370  142.5042  160.9790 C.3     1  UNL1        0.0472
     27 C         137.2894  141.5167  163.1417 C.3     1  UNL1        0.0472
     28 N         141.0093  141.6011  166.3384 N.pl3   1  UNL1       -0.2971
     29 H         141.6500  141.6240  167.0855 H       1  UNL1        0.1536
     30 C         140.9534  142.7395  165.3632 C.ar    1  UNL1        0.0666
     31 C         139.8091  143.7083  165.4062 C.ar    1  UNL1        0.0159
     32 C         139.7531  144.8467  164.4311 C.ar    1  UNL1        0.0014
     33 C         140.8415  145.0162  163.4129 C.ar    1  UNL1        0.0014
     34 C         141.9858  144.0474  163.3699 C.ar    1  UNL1        0.0196
     35 C         142.0418  142.9090  164.3451 C.ar    1  UNL1        0.1189
     36 S         143.1861  141.9401  164.3021 S.O2    1  UNL1        0.0082
     37 O         142.5736  141.2697  163.1081 O.2     1  UNL1       -0.1686
     38 O         143.7985  142.6105  165.4960 O.2     1  UNL1       -0.1686
     39 C         144.3304  140.9713  164.2591 C.3     1  UNL1        0.1340
     40 C         144.1012  139.5250  164.5844 C.3     1  UNL1        0.0257
     41 C         145.7038  141.4486  163.8907 C.3     1  UNL1        0.0257
@<TRIPOS>BOND
     1    10    11    1
     2    11    12   ar
     3    12    13   ar
     4    13     8    1
     5     8     1    1
     6     1     2   ar
     7     2     3   ar
     8     3     4   ar
     9     4     5    1
    10     4     6   ar
    11     6    28    1
    12    28    30    1
    13    30    31   ar
    14    31    32   ar
    15    32    33   ar
    16    33    34   ar
    17    34    35   ar
    18    35    36    1
    19    36    37    2
    20    36    38    2
    21    36    39    1
    22    39    40    1
    23    39    41    1
    24     6     7   ar
    25    13    14   ar
    26    14    24    1
    27    24    25    1
    28    25    26    1
    29    25    27    1
    30    14    15   ar
    31    15    16   ar
    32    16    17    1
    33    17    18    1
    34    18    19    1
    35    19    20    1
    36    20    21    1
    37    20    22    1
    38    22    23    1
    39    16    11   ar
    40    23    17    1
    41     7     1   ar
    42    35    30   ar
    43     8     9    1
    44    28    29    1
@<TRIPOS>MOLECULE
*****
 41 44 0 0 0
SMALL
GASTEIGER

@<TRIPOS>ATOM
      1 C         143.5343  140.0277  160.1715 C.ar    1  UNL1        0.2219
      2 N         144.1067  139.8709  158.7938 N.ar    1  UNL1       -0.2123
      3 C         143.3458  140.3757  157.6037 C.ar    1  UNL1        0.1003
      4 C         142.0127  141.0372  157.7912 C.ar    1  UNL1        0.0291
      5 C         141.2519  141.5420  156.6011 C.3     1  UNL1        0.0356
      6 C         141.4404  141.1940  159.1689 C.ar    1  UNL1        0.1325
      7 N         142.2012  140.6892  160.3590 N.ar    1  UNL1       -0.1988
      8 N         144.2951  139.5229  161.3616 N.pl3   1  UNL1       -0.2801
      9 H         145.2042  139.1625  161.2480 H       1  UNL1        0.1552
     10 C         141.3644  137.3182  165.0427 C.3     1  UNL1        0.0307
     11 C         142.2054  138.4649  164.5653 C.ar    1  UNL1       -0.0244
     12 C         142.8298  138.4206  163.2022 C.ar    1  UNL1        0.0132
     13 C         143.6708  139.5673  162.7248 C.ar    1  UNL1        0.0846
     14 C         143.8875  140.7582  163.6106 C.ar    1  UNL1        0.1513
     15 C         143.2631  140.8025  164.9737 C.ar    1  UNL1        0.0336
     16 C         142.4221  139.6558  165.4511 C.ar    1  UNL1       -0.0233
     17 C         141.7978  139.7002  166.8143 C.3     1  UNL1        0.0249
     18 C         142.6222  139.3857  168.0274 C.3     1  UNL1        0.0217
     19 C         141.9979  139.4300  169.3905 C.3     1  UNL1        0.0725
     20 N         140.5492  139.7888  169.5407 N.3     1  UNL1       -0.2715
     21 C         139.9249  139.8332  170.9039 C.3     1  UNL1        0.0896
     22 C         139.7248  140.1033  168.3277 C.3     1  UNL1        0.0725
     23 C         140.3491  140.0590  166.9644 C.3     1  UNL1        0.0217
     24 O         144.7285  141.9048  163.1332 O.3     1  UNL1       -0.4779
     25 C         144.1144  143.2615  162.9534 C.3     1  UNL1        0.1662
     26 C         143.5255  143.6487  161.6293 C.3     1  UNL1        0.0472
     27 C         144.0893  144.2311  164.0978 C.3     1  UNL1        0.0472
     28 N         140.1072  141.8555  159.3564 N.pl3   1  UNL1       -0.2971
     29 H         139.3047  141.4748  158.9319 H       1  UNL1        0.1536
     30 C         139.9968  143.0971  160.1908 C.ar    1  UNL1        0.0666
     31 C         140.3350  144.4324  159.5970 C.ar    1  UNL1        0.0159
     32 C         140.2246  145.6739  160.4314 C.ar    1  UNL1        0.0014
     33 C         139.7760  145.5802  161.8597 C.ar    1  UNL1        0.0014
     34 C         139.4379  144.2450  162.4536 C.ar    1  UNL1        0.0196
     35 C         139.5483  143.0033  161.6191 C.ar    1  UNL1        0.1189
     36 S         139.2101  141.6681  162.2129 S.O2    1  UNL1        0.0082
     37 O         137.9517  141.6243  161.3978 O.2     1  UNL1       -0.1686
     38 O         140.4686  141.7119  163.0280 O.2     1  UNL1       -0.1686
     39 C         138.8719  140.3328  162.8068 C.3     1  UNL1        0.1340
     40 C         138.2030  140.2558  164.1472 C.3     1  UNL1        0.0257
     41 C         139.2027  139.0745  162.0603 C.3     1  UNL1        0.0257
@<TRIPOS>BOND
     1    10    11    1
     2    11    12   ar
     3    12    13   ar
     4    13     8    1
     5     8     1    1
     6     1     2   ar
     7     2     3   ar
     8     3     4   ar
     9     4     5    1
    10     4     6   ar
    11     6    28    1
    12    28    30    1
    13    30    31   ar
    14    31    32   ar
    15    32    33   ar
    16    33    34   ar
    17    34    35   ar
    18    35    36    1
    19    36    37    2
    20    36    38    2
    21    36    39    1
    22    39    40    1
    23    39    41    1
    24     6     7   ar
    25    13    14   ar
    26    14    24    1
    27    24    25    1
    28    25    26    1
    29    25    27    1
    30    14    15   ar
    31    15    16   ar
    32    16    17    1
    33    17    18    1
    34    18    19    1
    35    19    20    1
    36    20    21    1
    37    20    22    1
    38    22    23    1
    39    16    11   ar
    40    23    17    1
    41     7     1   ar
    42    35    30   ar
    43     8     9    1
    44    28    29    1
@<TRIPOS>MOLECULE
*****
 41 44 0 0 0
SMALL
GASTEIGER

@<TRIPOS>ATOM
      1 C         142.1767  138.9531  165.9016 C.ar    1  UNL1        0.2219
      2 N         142.6722  138.6643  167.2876 N.ar    1  UNL1       -0.2123
      3 C         142.8783  139.7879  168.2597 C.ar    1  UNL1        0.1003
      4 C         142.5888  141.2003  167.8458 C.ar    1  UNL1        0.0291
      5 C         142.7948  142.3239  168.8180 C.3     1  UNL1        0.0356
      6 C         142.0932  141.4891  166.4598 C.ar    1  UNL1        0.1325
      7 N         141.8872  140.3655  165.4877 N.ar    1  UNL1       -0.1988
      8 N         141.9706  137.8295  164.9294 N.pl3   1  UNL1       -0.2801
      9 H         142.2003  136.9075  165.1869 H       1  UNL1        0.1552
     10 C         137.9033  138.2076  161.7179 C.3     1  UNL1        0.0307
     11 C         139.3809  138.2998  161.9592 C.ar    1  UNL1       -0.0244
     12 C         139.9370  138.0186  163.3236 C.ar    1  UNL1        0.0132
     13 C         141.4145  138.1108  163.5649 C.ar    1  UNL1        0.0846
     14 C         142.3360  138.4843  162.4419 C.ar    1  UNL1        0.1513
     15 C         141.7799  138.7656  161.0775 C.ar    1  UNL1        0.0336
     16 C         140.3023  138.6733  160.8362 C.ar    1  UNL1       -0.0233
     17 C         139.7463  138.9546  159.4717 C.3     1  UNL1        0.0249
     18 C         140.0555  138.0312  158.3308 C.3     1  UNL1        0.0217
     19 C         139.4995  138.3124  156.9664 C.3     1  UNL1        0.0725
     20 N         138.6341  139.5171  156.7428 N.3     1  UNL1       -0.2715
     21 C         138.0781  139.7983  155.3784 C.3     1  UNL1        0.0896
     22 C         138.3249  140.4406  157.8837 C.3     1  UNL1        0.0725
     23 C         138.8810  140.1593  159.2481 C.3     1  UNL1        0.0217
     24 O         143.8136  138.5766  162.6832 O.3     1  UNL1       -0.4779
     25 C         144.4637  139.9178  162.8515 C.3     1  UNL1        0.1662
     26 C         145.1461  140.2639  164.1417 C.3     1  UNL1        0.0472
     27 C         144.4316  140.9130  161.7296 C.3     1  UNL1        0.0472
     28 N         141.8037  142.9016  166.0459 N.pl3   1  UNL1       -0.2971
     29 H         141.3225  143.5048  166.6572 H       1  UNL1        0.1536
     30 C         142.2475  143.3948  164.7007 C.ar    1  UNL1        0.0666
     31 C         143.6771  143.7928  164.4819 C.ar    1  UNL1        0.0159
     32 C         144.1208  144.2860  163.1367 C.ar    1  UNL1        0.0014
     33 C         143.1350  144.3813  162.0101 C.ar    1  UNL1        0.0014
     34 C         141.7054  143.9833  162.2289 C.ar    1  UNL1        0.0196
     35 C         141.2616  143.4901  163.5742 C.ar    1  UNL1        0.1189
     36 S         139.8320  143.0921  163.7930 S.O2    1  UNL1        0.0082
     37 O         140.0482  141.8603  162.9648 O.2     1  UNL1       -0.1686
     38 O         139.6159  144.3239  164.6212 O.2     1  UNL1       -0.1686
     39 C         138.4024  142.6941  164.0118 C.3     1  UNL1        0.1340
     40 C         137.3577  143.7459  164.2405 C.3     1  UNL1        0.0257
     41 C         138.0176  141.2444  164.0018 C.3     1  UNL1        0.0257
@<TRIPOS>BOND
     1    10    11    1
     2    11    12   ar
     3    12    13   ar
     4    13     8    1
     5     8     1    1
     6     1     2   ar
     7     2     3   ar
     8     3     4   ar
     9     4     5    1
    10     4     6   ar
    11     6    28    1
    12    28    30    1
    13    30    31   ar
    14    31    32   ar
    15    32    33   ar
    16    33    34   ar
    17    34    35   ar
    18    35    36    1
    19    36    37    2
    20    36    38    2
    21    36    39    1
    22    39    40    1
    23    39    41    1
    24     6     7   ar
    25    13    14   ar
    26    14    24    1
    27    24    25    1
    28    25    26    1
    29    25    27    1
    30    14    15   ar
    31    15    16   ar
    32    16    17    1
    33    17    18    1
    34    18    19    1
    35    19    20    1
    36    20    21    1
    37    20    22    1
    38    22    23    1
    39    16    11   ar
    40    23    17    1
    41     7     1   ar
    42    35    30   ar
    43     8     9    1
    44    28    29    1
@<TRIPOS>MOLECULE
*****
 41 44 0 0 0
SMALL
GASTEIGER

@<TRIPOS>ATOM
      1 C         139.2427  139.4000  166.1581 C.ar    1  UNL1        0.2219
      2 N         139.1252  139.1147  167.6261 N.ar    1  UNL1       -0.2123
      3 C         139.5104  140.1634  168.6271 C.ar    1  UNL1        0.1003
      4 C         140.0129  141.4974  168.1600 C.ar    1  UNL1        0.0291
      5 C         140.3980  142.5461  169.1609 C.3     1  UNL1        0.0356
      6 C         140.1303  141.7826  166.6921 C.ar    1  UNL1        0.1325
      7 N         139.7452  140.7339  165.6911 N.ar    1  UNL1       -0.1988
      8 N         138.8575  138.3513  165.1572 N.pl3   1  UNL1       -0.2801
      9 H         138.3817  137.5411  165.4514 H       1  UNL1        0.1552
     10 C         137.4997  139.8615  160.3743 C.3     1  UNL1        0.0307
     11 C         138.5184  139.2920  161.3166 C.ar    1  UNL1       -0.0244
     12 C         138.1786  139.1064  162.7657 C.ar    1  UNL1        0.0132
     13 C         139.1974  138.5369  163.7080 C.ar    1  UNL1        0.0846
     14 C         140.5559  138.1531  163.2011 C.ar    1  UNL1        0.1513
     15 C         140.8957  138.3387  161.7520 C.ar    1  UNL1        0.0336
     16 C         139.8770  138.9082  160.8097 C.ar    1  UNL1       -0.0233
     17 C         140.2168  139.0938  159.3605 C.3     1  UNL1        0.0249
     18 C         140.9121  140.3433  158.9073 C.3     1  UNL1        0.0217
     19 C         141.2519  140.5290  157.4582 C.3     1  UNL1        0.0725
     20 N         140.8965  139.4651  156.4622 N.3     1  UNL1       -0.2715
     21 C         141.2364  139.6508  155.0131 C.3     1  UNL1        0.0896
     22 C         140.2013  138.2156  156.9154 C.3     1  UNL1        0.0725
     23 C         139.8615  138.0300  158.3646 C.3     1  UNL1        0.0217
     24 O         141.5747  137.5836  164.1433 O.3     1  UNL1       -0.4779
     25 C         142.6794  138.4522  164.6679 C.3     1  UNL1        0.1662
     26 C         143.7023  139.0151  163.7262 C.3     1  UNL1        0.0472
     27 C         142.7612  138.7579  166.1342 C.3     1  UNL1        0.0472
     28 N         140.6329  143.1165  166.2250 N.pl3   1  UNL1       -0.2971
     29 H         141.3038  143.6033  166.7562 H       1  UNL1        0.1536
     30 C         140.1133  143.7088  164.9487 C.ar    1  UNL1        0.0666
     31 C         138.6521  144.0158  164.8046 C.ar    1  UNL1        0.0159
     32 C         138.1324  144.6081  163.5283 C.ar    1  UNL1        0.0014
     33 C         139.0739  144.8934  162.3959 C.ar    1  UNL1        0.0014
     34 C         140.5351  144.5864  162.5400 C.ar    1  UNL1        0.0196
     35 C         141.0548  143.9941  163.8164 C.ar    1  UNL1        0.1189
     36 S         142.5159  143.6871  163.9604 S.O2    1  UNL1        0.0082
     37 O         142.8131  145.1532  164.0707 O.2     1  UNL1       -0.1686
     38 O         142.2188  142.2210  163.8502 O.2     1  UNL1       -0.1686
     39 C         143.9771  143.3801  164.1045 C.3     1  UNL1        0.1340
     40 C         144.7571  142.8756  162.9267 C.3     1  UNL1        0.0257
     41 C         144.6582  143.5776  165.4262 C.3     1  UNL1        0.0257
@<TRIPOS>BOND
     1    10    11    1
     2    11    12   ar
     3    12    13   ar
     4    13     8    1
     5     8     1    1
     6     1     2   ar
     7     2     3   ar
     8     3     4   ar
     9     4     5    1
    10     4     6   ar
    11     6    28    1
    12    28    30    1
    13    30    31   ar
    14    31    32   ar
    15    32    33   ar
    16    33    34   ar
    17    34    35   ar
    18    35    36    1
    19    36    37    2
    20    36    38    2
    21    36    39    1
    22    39    40    1
    23    39    41    1
    24     6     7   ar
    25    13    14   ar
    26    14    24    1
    27    24    25    1
    28    25    26    1
    29    25    27    1
    30    14    15   ar
    31    15    16   ar
    32    16    17    1
    33    17    18    1
    34    18    19    1
    35    19    20    1
    36    20    21    1
    37    20    22    1
    38    22    23    1
    39    16    11   ar
    40    23    17    1
    41     7     1   ar
    42    35    30   ar
    43     8     9    1
    44    28    29    1
@<TRIPOS>MOLECULE
*****
 41 44 0 0 0
SMALL
GASTEIGER

@<TRIPOS>ATOM
      1 C         141.4604  144.6142  160.4315 C.ar    1  UNL1        0.2219
      2 N         141.1395  145.5527  159.3061 N.ar    1  UNL1       -0.2123
      3 C         140.3773  145.0591  158.1122 C.ar    1  UNL1        0.1003
      4 C         139.9361  143.6270  158.0436 C.ar    1  UNL1        0.0291
      5 C         139.1739  143.1335  156.8496 C.3     1  UNL1        0.0356
      6 C         140.2571  142.6886  159.1689 C.ar    1  UNL1        0.1325
      7 N         141.0192  143.1822  160.3628 N.ar    1  UNL1       -0.1988
      8 N         142.2226  145.1077  161.6254 N.pl3   1  UNL1       -0.2801
      9 H         142.6515  145.9937  161.6039 H       1  UNL1        0.1552
     10 C         144.9451  141.8276  164.5967 C.3     1  UNL1        0.0307
     11 C         143.6927  142.6114  164.3378 C.ar    1  UNL1       -0.0244
     12 C         143.5838  143.4676  163.1111 C.ar    1  UNL1        0.0132
     13 C         142.3314  144.2514  162.8522 C.ar    1  UNL1        0.0846
     14 C         141.1877  144.1789  163.8200 C.ar    1  UNL1        0.1513
     15 C         141.2965  143.3227  165.0468 C.ar    1  UNL1        0.0336
     16 C         142.5490  142.5389  165.3057 C.ar    1  UNL1       -0.0233
     17 C         142.6578  141.6826  166.5325 C.3     1  UNL1        0.0249
     18 C         142.3970  140.2081  166.4434 C.3     1  UNL1        0.0217
     19 C         142.5058  139.3518  167.6702 C.3     1  UNL1        0.0725
     20 N         142.8753  139.9700  168.9860 N.3     1  UNL1       -0.2715
     21 C         142.9840  139.1137  170.2127 C.3     1  UNL1        0.0896
     22 C         143.1360  141.4444  169.0751 C.3     1  UNL1        0.0725
     23 C         143.0273  142.3008  167.8482 C.3     1  UNL1        0.0217
     24 O         139.9353  144.9627  163.5611 O.3     1  UNL1       -0.4779
     25 C         138.5973  144.2915  163.6566 C.3     1  UNL1        0.1662
     26 C         138.0667  143.5075  162.4931 C.3     1  UNL1        0.0472
     27 C         137.7897  144.4042  164.9158 C.3     1  UNL1        0.0472
     28 N         139.8158  141.2566  159.1003 N.pl3   1  UNL1       -0.2971
     29 H         138.8768  141.0217  159.2798 H       1  UNL1        0.1536
     30 C         140.8054  140.1825  158.7581 C.ar    1  UNL1        0.0666
     31 C         141.4697  140.1755  157.4133 C.ar    1  UNL1        0.0159
     32 C         142.4592  139.1014  157.0712 C.ar    1  UNL1        0.0014
     33 C         142.7845  138.0342  158.0739 C.ar    1  UNL1        0.0014
     34 C         142.1201  138.0412  159.4188 C.ar    1  UNL1        0.0196
     35 C         141.1306  139.1154  159.7609 C.ar    1  UNL1        0.1189
     36 S         140.4662  139.1224  161.1057 S.O2    1  UNL1        0.0082
     37 O         139.3929  138.2159  160.5802 O.2     1  UNL1       -0.1686
     38 O         141.5396  140.0289  161.6312 O.2     1  UNL1       -0.1686
     39 C         139.8019  139.1294  162.4506 C.3     1  UNL1        0.1340
     40 C         138.7916  138.0749  162.7935 C.3     1  UNL1        0.0257
     41 C         140.1478  140.1907  163.4524 C.3     1  UNL1        0.0257
@<TRIPOS>BOND
     1    10    11    1
     2    11    12   ar
     3    12    13   ar
     4    13     8    1
     5     8     1    1
     6     1     2   ar
     7     2     3   ar
     8     3     4   ar
     9     4     5    1
    10     4     6   ar
    11     6    28    1
    12    28    30    1
    13    30    31   ar
    14    31    32   ar
    15    32    33   ar
    16    33    34   ar
    17    34    35   ar
    18    35    36    1
    19    36    37    2
    20    36    38    2
    21    36    39    1
    22    39    40    1
    23    39    41    1
    24     6     7   ar
    25    13    14   ar
    26    14    24    1
    27    24    25    1
    28    25    26    1
    29    25    27    1
    30    14    15   ar
    31    15    16   ar
    32    16    17    1
    33    17    18    1
    34    18    19    1
    35    19    20    1
    36    20    21    1
    37    20    22    1
    38    22    23    1
    39    16    11   ar
    40    23    17    1
    41     7     1   ar
    42    35    30   ar
    43     8     9    1
    44    28    29    1
