@<TRIPOS>MOLECULE
*****
 28 31 0 0 0
SMALL
GASTEIGER

@<TRIPOS>ATOM
      1 C         139.9872  143.3607  161.9544 C.3     1  UNL1        0.1456
      2 C         139.1615  144.0002  163.0310 C.2     1  UNL1       -0.0120
      3 C         139.2078  143.4628  164.4306 C.2     1  UNL1        0.0126
      4 C         140.0799  142.2859  164.7536 C.2     1  UNL1        0.0730
      5 N         140.9056  141.6464  163.6769 N.am    1  UNL1       -0.1788
      6 C         140.8593  142.1838  162.2773 C.2     1  UNL1        0.2531
      7 O         141.4395  141.6882  161.6558 O.2     1  UNL1       -0.2725
      8 C         140.1262  141.7484  166.1533 C.ar    1  UNL1        0.0153
      9 C         139.4250  140.4651  166.4875 C.ar    1  UNL1        0.0013
     10 C         139.4714  139.9276  167.8870 C.ar    1  UNL1        0.0000
     11 C         140.2189  140.6733  168.9525 C.ar    1  UNL1        0.0000
     12 C         140.2652  140.1358  170.3521 C.ar    1  UNL1        0.0000
     13 C         141.0127  140.8816  171.4175 C.ar    1  UNL1        0.0000
     14 C         141.7139  142.1648  171.0833 C.ar    1  UNL1        0.0000
     15 C         141.6676  142.7023  169.6837 C.ar    1  UNL1        0.0000
     16 C         140.9201  141.9566  168.6183 C.ar    1  UNL1        0.0000
     17 C         140.8737  142.4941  167.2187 C.ar    1  UNL1        0.0013
     18 C         139.9409  143.8982  160.5547 C.3     1  UNL1        0.2169
     19 O         139.6727  144.2179  159.1139 O.3     1  UNL1       -0.4320
     20 C         140.5776  145.3449  158.7130 C.2     1  UNL1        0.4077
     21 O         140.6435  145.9830  157.3571 O.2     1  UNL1       -0.2260
     22 N         141.4051  145.7219  159.9059 N.am    1  UNL1       -0.2182
     23 C         141.0116  144.8278  161.0442 C.2     1  UNL1        0.2678
     24 O         141.5876  144.8579  162.4289 O.2     1  UNL1       -0.2708
     25 H         142.0868  146.4315  159.9364 H       1  UNL1        0.1610
     26 C         138.0858  142.7061  160.9194 C.3     1  UNL1        0.0041
     27 C         138.8799  142.8563  160.3578 C.3     1  UNL1        0.0462
     28 C         138.9695  141.9037  159.2026 C.3     1  UNL1        0.0041
@<TRIPOS>BOND
     1    26    27    1
     2    27    28    1
     3    27    18    1
     4    18     1    1
     5     1     2    1
     6     2     3    2
     7     3     4    1
     8     4     8    1
     9     8     9   ar
    10     9    10   ar
    11    10    11   ar
    12    11    12   ar
    13    12    13   ar
    14    13    14   ar
    15    14    15   ar
    16    15    16   ar
    17    16    17   ar
    18     4     5    2
    19     5     6    1
    20     6     7    2
    21    18    19    1
    22    19    20    1
    23    20    21    2
    24    20    22   am
    25    22    23   am
    26    23    24    2
    27    23    18    1
    28     6     1    1
    29    17     8   ar
    30    16    11   ar
    31    22    25    1
@<TRIPOS>MOLECULE
*****
 28 31 0 0 0
SMALL
GASTEIGER

@<TRIPOS>ATOM
      1 C         143.4695  140.1306  161.9106 C.3     1  UNL1        0.1456
      2 C         144.5567  140.1273  162.9441 C.2     1  UNL1       -0.0120
      3 C         144.2095  140.2482  164.3983 C.2     1  UNL1        0.0126
      4 C         142.7751  140.3724  164.8190 C.2     1  UNL1        0.0730
      5 N         141.6879  140.3757  163.7856 N.am    1  UNL1       -0.1788
      6 C         142.0351  140.2548  162.3314 C.2     1  UNL1        0.2531
      7 O         141.2449  140.2683  161.7450 O.2     1  UNL1       -0.2725
      8 C         142.4278  140.4932  166.2733 C.ar    1  UNL1        0.0153
      9 C         142.8368  139.4163  167.2341 C.ar    1  UNL1        0.0013
     10 C         142.4895  139.5372  168.6883 C.ar    1  UNL1        0.0000
     11 C         141.7333  140.7350  169.1818 C.ar    1  UNL1        0.0000
     12 C         141.3860  140.8558  170.6360 C.ar    1  UNL1        0.0000
     13 C         140.6298  142.0535  171.1295 C.ar    1  UNL1        0.0000
     14 C         140.2209  143.1304  170.1687 C.ar    1  UNL1        0.0000
     15 C         140.5681  143.0096  168.7145 C.ar    1  UNL1        0.0000
     16 C         141.3243  141.8119  168.2211 C.ar    1  UNL1        0.0000
     17 C         141.6716  141.6910  166.7668 C.ar    1  UNL1        0.0013
     18 C         143.8168  140.0097  160.4563 C.3     1  UNL1        0.2169
     19 O         144.1239  139.5818  159.0519 O.3     1  UNL1       -0.4320
     20 C         144.4332  140.8111  158.2499 C.2     1  UNL1        0.4077
     21 O         144.7950  140.8465  156.7947 O.2     1  UNL1       -0.2260
     22 N         144.3173  141.9987  159.1587 N.am    1  UNL1       -0.2182
     23 C         143.9364  141.5035  160.5224 C.2     1  UNL1        0.2678
     24 O         143.7140  142.3529  161.7386 O.2     1  UNL1       -0.2708
     25 H         144.4653  142.9383  158.9048 H       1  UNL1        0.1610
     26 C         144.0897  137.9829  161.3581 C.3     1  UNL1        0.0041
     27 C         143.6247  138.5412  160.6943 C.3     1  UNL1        0.0462
     28 C         142.6346  137.7714  159.8715 C.3     1  UNL1        0.0041
@<TRIPOS>BOND
     1    26    27    1
     2    27    28    1
     3    27    18    1
     4    18     1    1
     5     1     2    1
     6     2     3    2
     7     3     4    1
     8     4     8    1
     9     8     9   ar
    10     9    10   ar
    11    10    11   ar
    12    11    12   ar
    13    12    13   ar
    14    13    14   ar
    15    14    15   ar
    16    15    16   ar
    17    16    17   ar
    18     4     5    2
    19     5     6    1
    20     6     7    2
    21    18    19    1
    22    19    20    1
    23    20    21    2
    24    20    22   am
    25    22    23   am
    26    23    24    2
    27    23    18    1
    28     6     1    1
    29    17     8   ar
    30    16    11   ar
    31    22    25    1
@<TRIPOS>MOLECULE
*****
 28 31 0 0 0
SMALL
GASTEIGER

@<TRIPOS>ATOM
      1 C         141.8591  140.9269  167.4014 C.3     1  UNL1        0.1456
      2 C         141.2268  141.6525  166.2509 C.2     1  UNL1       -0.0120
      3 C         141.3749  141.1207  164.8562 C.2     1  UNL1        0.0126
      4 C         142.1553  139.8632  164.6121 C.2     1  UNL1        0.0730
      5 N         142.7876  139.1376  165.7626 N.am    1  UNL1       -0.1788
      6 C         142.6395  139.6694  167.1572 C.2     1  UNL1        0.2531
      7 O         143.0942  139.1143  167.8307 O.2     1  UNL1       -0.2725
      8 C         142.3034  139.3312  163.2173 C.ar    1  UNL1        0.0153
      9 C         143.5694  138.6377  162.8097 C.ar    1  UNL1        0.0013
     10 C         143.7176  138.1057  161.4151 C.ar    1  UNL1        0.0000
     11 C         142.5997  138.2674  160.4280 C.ar    1  UNL1        0.0000
     12 C         142.7478  137.7355  159.0333 C.ar    1  UNL1        0.0000
     13 C         141.6300  137.8971  158.0463 C.ar    1  UNL1        0.0000
     14 C         140.3640  138.5907  158.4540 C.ar    1  UNL1        0.0000
     15 C         140.2158  139.1226  159.8486 C.ar    1  UNL1        0.0000
     16 C         141.3337  138.9610  160.8356 C.ar    1  UNL1        0.0000
     17 C         141.1856  139.4929  162.2303 C.ar    1  UNL1        0.0013
     18 C         141.7110  141.4589  168.7961 C.3     1  UNL1        0.2169
     19 O         141.8347  142.1348  170.1295 O.3     1  UNL1       -0.4320
     20 C         140.6422  141.7526  170.9552 C.2     1  UNL1        0.4077
     21 O         140.3600  142.2034  172.3577 O.2     1  UNL1       -0.2260
     22 N         139.7816  140.8405  170.1323 N.am    1  UNL1       -0.2182
     23 C         140.4421  140.6590  168.7978 C.2     1  UNL1        0.2678
     24 O         139.9246  139.8240  167.6642 O.2     1  UNL1       -0.2708
     25 H         138.9322  140.4326  170.4178 H       1  UNL1        0.1610
     26 C         143.2930  142.5400  167.6455 C.3     1  UNL1        0.0041
     27 C         143.0109  142.1476  168.5028 C.3     1  UNL1        0.0462
     28 C         144.0428  142.2928  169.5817 C.3     1  UNL1        0.0041
@<TRIPOS>BOND
     1    26    27    1
     2    27    28    1
     3    27    18    1
     4    18     1    1
     5     1     2    1
     6     2     3    2
     7     3     4    1
     8     4     8    1
     9     8     9   ar
    10     9    10   ar
    11    10    11   ar
    12    11    12   ar
    13    12    13   ar
    14    13    14   ar
    15    14    15   ar
    16    15    16   ar
    17    16    17   ar
    18     4     5    2
    19     5     6    1
    20     6     7    2
    21    18    19    1
    22    19    20    1
    23    20    21    2
    24    20    22   am
    25    22    23   am
    26    23    24    2
    27    23    18    1
    28     6     1    1
    29    17     8   ar
    30    16    11   ar
    31    22    25    1
@<TRIPOS>MOLECULE
*****
 28 31 0 0 0
SMALL
GASTEIGER

@<TRIPOS>ATOM
      1 C         139.6594  142.9462  161.5088 C.3     1  UNL1        0.1456
      2 C         140.7245  141.9868  161.9505 C.2     1  UNL1       -0.0120
      3 C         140.7765  141.5290  163.3779 C.2     1  UNL1        0.0126
      4 C         139.7633  142.0305  164.3637 C.2     1  UNL1        0.0730
      5 N         138.6981  142.9899  163.9221 N.am    1  UNL1       -0.1788
      6 C         138.6462  143.4478  162.4946 C.2     1  UNL1        0.2531
      7 O         137.9082  144.0746  162.3185 O.2     1  UNL1       -0.2725
      8 C         139.8152  141.5727  165.7912 C.ar    1  UNL1        0.0153
      9 C         139.1896  140.2669  166.1832 C.ar    1  UNL1        0.0013
     10 C         139.2414  139.8090  167.6107 C.ar    1  UNL1        0.0000
     11 C         139.9189  140.6569  168.6462 C.ar    1  UNL1        0.0000
     12 C         139.9708  140.1991  170.0736 C.ar    1  UNL1        0.0000
     13 C         140.6482  141.0469  171.1090 C.ar    1  UNL1        0.0000
     14 C         141.2738  142.3527  170.7170 C.ar    1  UNL1        0.0000
     15 C         141.2219  142.8105  169.2896 C.ar    1  UNL1        0.0000
     16 C         140.5445  141.9627  168.2542 C.ar    1  UNL1        0.0000
     17 C         140.4926  142.4205  166.8266 C.ar    1  UNL1        0.0013
     18 C         139.6075  143.4041  160.0813 C.3     1  UNL1        0.2169
     19 O         139.7544  144.0837  158.7522 O.3     1  UNL1       -0.4320
     20 C         138.9054  143.3474  157.7588 C.2     1  UNL1        0.4077
     21 O         138.7544  143.6862  156.3054 O.2     1  UNL1       -0.2260
     22 N         138.2338  142.2127  158.4739 N.am    1  UNL1       -0.2182
     23 C         138.6677  142.2477  159.9093 C.2     1  UNL1        0.2678
     24 O         138.2374  141.2939  160.9841 O.2     1  UNL1       -0.2708
     25 H         137.6165  141.5596  158.0717 H       1  UNL1        0.1610
     26 C         141.5189  144.3591  160.7371 C.3     1  UNL1        0.0041
     27 C         140.5581  144.4647  160.5517 C.3     1  UNL1        0.0462
     28 C         140.0659  145.8619  160.7877 C.3     1  UNL1        0.0041
@<TRIPOS>BOND
     1    26    27    1
     2    27    28    1
     3    27    18    1
     4    18     1    1
     5     1     2    1
     6     2     3    2
     7     3     4    1
     8     4     8    1
     9     8     9   ar
    10     9    10   ar
    11    10    11   ar
    12    11    12   ar
    13    12    13   ar
    14    13    14   ar
    15    14    15   ar
    16    15    16   ar
    17    16    17   ar
    18     4     5    2
    19     5     6    1
    20     6     7    2
    21    18    19    1
    22    19    20    1
    23    20    21    2
    24    20    22   am
    25    22    23   am
    26    23    24    2
    27    23    18    1
    28     6     1    1
    29    17     8   ar
    30    16    11   ar
    31    22    25    1
@<TRIPOS>MOLECULE
*****
 28 31 0 0 0
SMALL
GASTEIGER

@<TRIPOS>ATOM
      1 C         138.8064  140.8291  162.0031 C.3     1  UNL1        0.1456
      2 C         137.7022  140.9193  163.0144 C.2     1  UNL1       -0.0120
      3 C         138.0255  140.9277  164.4791 C.2     1  UNL1        0.0126
      4 C         139.4530  140.8459  164.9325 C.2     1  UNL1        0.0730
      5 N         140.5571  140.7558  163.9212 N.am    1  UNL1       -0.1788
      6 C         140.2338  140.7474  162.4565 C.2     1  UNL1        0.2531
      7 O         141.0337  140.6853  161.8866 O.2     1  UNL1       -0.2725
      8 C         139.7764  140.8543  166.3973 C.ar    1  UNL1        0.0153
      9 C         139.0460  139.9361  167.3318 C.ar    1  UNL1        0.0013
     10 C         139.3693  139.9445  168.7965 C.ar    1  UNL1        0.0000
     11 C         140.4231  140.8711  169.3267 C.ar    1  UNL1        0.0000
     12 C         140.7464  140.8795  170.7914 C.ar    1  UNL1        0.0000
     13 C         141.8001  141.8061  171.3215 C.ar    1  UNL1        0.0000
     14 C         142.5305  142.7243  170.3869 C.ar    1  UNL1        0.0000
     15 C         142.2071  142.7159  168.9223 C.ar    1  UNL1        0.0000
     16 C         141.1534  141.7893  168.3921 C.ar    1  UNL1        0.0000
     17 C         140.8301  141.7809  166.9274 C.ar    1  UNL1        0.0013
     18 C         138.4830  140.8207  160.5384 C.3     1  UNL1        0.2169
     19 O         138.1449  140.5014  159.1123 O.3     1  UNL1       -0.4320
     20 C         138.0740  141.7927  158.3525 C.2     1  UNL1        0.4077
     21 O         137.7634  141.9407  156.8925 O.2     1  UNL1       -0.2260
     22 N         138.3683  142.9101  159.3089 N.am    1  UNL1       -0.2182
     23 C         138.6211  142.3094  160.6599 C.2     1  UNL1        0.2678
     24 O         138.9536  143.0647  161.9125 O.2     1  UNL1       -0.2708
     25 H         138.3915  143.8694  159.0886 H       1  UNL1        0.1610
     26 C         137.7751  138.8362  161.2841 C.3     1  UNL1        0.0041
     27 C         138.4125  139.3338  160.7231 C.3     1  UNL1        0.0462
     28 C         139.3847  138.4424  160.0088 C.3     1  UNL1        0.0041
@<TRIPOS>BOND
     1    26    27    1
     2    27    28    1
     3    27    18    1
     4    18     1    1
     5     1     2    1
     6     2     3    2
     7     3     4    1
     8     4     8    1
     9     8     9   ar
    10     9    10   ar
    11    10    11   ar
    12    11    12   ar
    13    12    13   ar
    14    13    14   ar
    15    14    15   ar
    16    15    16   ar
    17    16    17   ar
    18     4     5    2
    19     5     6    1
    20     6     7    2
    21    18    19    1
    22    19    20    1
    23    20    21    2
    24    20    22   am
    25    22    23   am
    26    23    24    2
    27    23    18    1
    28     6     1    1
    29    17     8   ar
    30    16    11   ar
    31    22    25    1
@<TRIPOS>MOLECULE
*****
 28 31 0 0 0
SMALL
GASTEIGER

@<TRIPOS>ATOM
      1 C         143.4379  140.9211  161.0032 C.3     1  UNL1        0.1456
      2 C         144.4171  141.0924  162.1266 C.2     1  UNL1       -0.0120
      3 C         143.9306  141.4689  163.4946 C.2     1  UNL1        0.0126
      4 C         142.4650  141.6741  163.7392 C.2     1  UNL1        0.0730
      5 N         141.4859  141.5029  162.6158 N.am    1  UNL1       -0.1788
      6 C         141.9724  141.1264  161.2478 C.2     1  UNL1        0.2531
      7 O         141.2446  141.0418  160.5907 O.2     1  UNL1       -0.2725
      8 C         141.9785  142.0507  165.1073 C.ar    1  UNL1        0.0153
      9 C         140.5624  142.5059  165.3007 C.ar    1  UNL1        0.0013
     10 C         140.0758  142.8824  166.6687 C.ar    1  UNL1        0.0000
     11 C         141.0054  142.8037  167.8434 C.ar    1  UNL1        0.0000
     12 C         140.5188  143.1802  169.2114 C.ar    1  UNL1        0.0000
     13 C         141.4484  143.1014  170.3860 C.ar    1  UNL1        0.0000
     14 C         142.8645  142.6462  170.1926 C.ar    1  UNL1        0.0000
     15 C         143.3510  142.2697  168.8246 C.ar    1  UNL1        0.0000
     16 C         142.4215  142.3484  167.6500 C.ar    1  UNL1        0.0000
     17 C         142.9080  141.9719  166.2819 C.ar    1  UNL1        0.0013
     18 C         143.9245  140.5446  159.6351 C.3     1  UNL1        0.2169
     19 O         144.3557  139.8750  158.3640 O.3     1  UNL1       -0.4320
     20 C         144.7850  140.9417  157.4008 C.2     1  UNL1        0.4077
     21 O         145.2913  140.7187  156.0066 O.2     1  UNL1       -0.2260
     22 N         144.6192  142.2705  158.0765 N.am    1  UNL1       -0.2182
     23 C         144.0873  142.0251  159.4574 C.2     1  UNL1        0.2678
     24 O         143.7735  143.0758  160.4810 O.2     1  UNL1       -0.2708
     25 H         144.8236  143.1494  157.6828 H       1  UNL1        0.1610
     26 C         144.0744  138.6841  160.8644 C.3     1  UNL1        0.0041
     27 C         143.6599  139.1429  160.0988 C.3     1  UNL1        0.0462
     28 C         142.6698  138.2854  159.3677 C.3     1  UNL1        0.0041
@<TRIPOS>BOND
     1    26    27    1
     2    27    28    1
     3    27    18    1
     4    18     1    1
     5     1     2    1
     6     2     3    2
     7     3     4    1
     8     4     8    1
     9     8     9   ar
    10     9    10   ar
    11    10    11   ar
    12    11    12   ar
    13    12    13   ar
    14    13    14   ar
    15    14    15   ar
    16    15    16   ar
    17    16    17   ar
    18     4     5    2
    19     5     6    1
    20     6     7    2
    21    18    19    1
    22    19    20    1
    23    20    21    2
    24    20    22   am
    25    22    23   am
    26    23    24    2
    27    23    18    1
    28     6     1    1
    29    17     8   ar
    30    16    11   ar
    31    22    25    1
@<TRIPOS>MOLECULE
*****
 28 31 0 0 0
SMALL
GASTEIGER

@<TRIPOS>ATOM
      1 C         142.6141  142.9855  161.2780 C.3     1  UNL1        0.1456
      2 C         141.5295  142.0337  161.6875 C.2     1  UNL1       -0.0120
      3 C         141.5267  141.4493  163.0689 C.2     1  UNL1        0.0126
      4 C         142.6085  141.8166  164.0408 C.2     1  UNL1        0.0730
      5 N         143.6931  142.7684  163.6313 N.am    1  UNL1       -0.1788
      6 C         143.6959  143.3529  162.2499 C.2     1  UNL1        0.2531
      7 O         144.4520  143.9626  162.0919 O.2     1  UNL1       -0.2725
      8 C         142.6057  141.2322  165.4223 C.ar    1  UNL1        0.0153
      9 C         142.7123  139.7477  165.6089 C.ar    1  UNL1        0.0013
     10 C         142.7096  139.1632  166.9903 C.ar    1  UNL1        0.0000
     11 C         142.6002  140.0633  168.1853 C.ar    1  UNL1        0.0000
     12 C         142.5974  139.4789  169.5667 C.ar    1  UNL1        0.0000
     13 C         142.4881  140.3790  170.7616 C.ar    1  UNL1        0.0000
     14 C         142.3814  141.8635  170.5751 C.ar    1  UNL1        0.0000
     15 C         142.3842  142.4480  169.1936 C.ar    1  UNL1        0.0000
     16 C         142.4936  141.5479  167.9988 C.ar    1  UNL1        0.0000
     17 C         142.4963  142.1323  166.6172 C.ar    1  UNL1        0.0013
     18 C         142.6168  143.5699  159.8964 C.3     1  UNL1        0.2169
     19 O         142.7892  143.9004  158.4435 O.3     1  UNL1       -0.4320
     20 C         142.0838  145.1969  158.1762 C.2     1  UNL1        0.4077
     21 O         142.0013  145.8992  156.8534 O.2     1  UNL1       -0.2260
     22 N         141.4754  145.6677  159.4639 N.am    1  UNL1       -0.2182
     23 C         141.8048  144.6621  160.5271 C.2     1  UNL1        0.2678
     24 O         141.3943  144.7359  161.9680 O.2     1  UNL1       -0.2708
     25 H         140.9518  146.4919  159.5892 H       1  UNL1        0.1610
     26 C         143.1354  141.4168  159.5952 C.3     1  UNL1        0.0041
     27 C         143.4283  142.3555  159.5546 C.3     1  UNL1        0.0462
     28 C         144.8476  142.5073  159.0937 C.3     1  UNL1        0.0041
@<TRIPOS>BOND
     1    26    27    1
     2    27    28    1
     3    27    18    1
     4    18     1    1
     5     1     2    1
     6     2     3    2
     7     3     4    1
     8     4     8    1
     9     8     9   ar
    10     9    10   ar
    11    10    11   ar
    12    11    12   ar
    13    12    13   ar
    14    13    14   ar
    15    14    15   ar
    16    15    16   ar
    17    16    17   ar
    18     4     5    2
    19     5     6    1
    20     6     7    2
    21    18    19    1
    22    19    20    1
    23    20    21    2
    24    20    22   am
    25    22    23   am
    26    23    24    2
    27    23    18    1
    28     6     1    1
    29    17     8   ar
    30    16    11   ar
    31    22    25    1
@<TRIPOS>MOLECULE
*****
 28 31 0 0 0
SMALL
GASTEIGER

@<TRIPOS>ATOM
      1 C         142.4520  143.3189  161.7617 C.3     1  UNL1        0.1456
      2 C         141.3512  142.4329  162.2649 C.2     1  UNL1       -0.0120
      3 C         141.2693  142.0936  163.7237 C.2     1  UNL1        0.0126
      4 C         142.2881  142.6403  164.6792 C.2     1  UNL1        0.0730
      5 N         143.3889  143.5263  164.1760 N.am    1  UNL1       -0.1788
      6 C         143.4709  143.8656  162.7172 C.2     1  UNL1        0.2531
      7 O         144.2310  144.4521  162.5010 O.2     1  UNL1       -0.2725
      8 C         142.2062  142.3010  166.1381 C.ar    1  UNL1        0.0153
      9 C         143.3573  142.6153  167.0470 C.ar    1  UNL1        0.0013
     10 C         143.2755  142.2760  168.5058 C.ar    1  UNL1        0.0000
     11 C         142.0424  141.6225  169.0558 C.ar    1  UNL1        0.0000
     12 C         141.9605  141.2833  170.5146 C.ar    1  UNL1        0.0000
     13 C         140.7274  140.6298  171.0645 C.ar    1  UNL1        0.0000
     14 C         139.5763  140.3155  170.1557 C.ar    1  UNL1        0.0000
     15 C         139.6581  140.6548  168.6969 C.ar    1  UNL1        0.0000
     16 C         140.8912  141.3083  168.1469 C.ar    1  UNL1        0.0000
     17 C         140.9731  141.6475  166.6880 C.ar    1  UNL1        0.0013
     18 C         142.5340  143.6582  160.3028 C.3     1  UNL1        0.2169
     19 O         142.7899  143.7371  158.8269 O.3     1  UNL1       -0.4320
     20 C         142.0989  144.9603  158.3014 C.2     1  UNL1        0.4077
     21 O         142.0920  145.4248  156.8752 O.2     1  UNL1       -0.2260
     22 N         141.4159  145.6374  159.4524 N.am    1  UNL1       -0.2182
     23 C         141.6848  144.8327  160.6894 C.2     1  UNL1        0.2678
     24 O         141.1912  145.1472  162.0706 O.2     1  UNL1       -0.2708
     25 H         140.8845  146.4648  159.4045 H       1  UNL1        0.1610
     26 C         143.0803  141.4948  160.4313 C.3     1  UNL1        0.0041
     27 C         143.3660  142.4128  160.2211 C.3     1  UNL1        0.0462
     28 C         144.7972  142.4946  159.7797 C.3     1  UNL1        0.0041
@<TRIPOS>BOND
     1    26    27    1
     2    27    28    1
     3    27    18    1
     4    18     1    1
     5     1     2    1
     6     2     3    2
     7     3     4    1
     8     4     8    1
     9     8     9   ar
    10     9    10   ar
    11    10    11   ar
    12    11    12   ar
    13    12    13   ar
    14    13    14   ar
    15    14    15   ar
    16    15    16   ar
    17    16    17   ar
    18     4     5    2
    19     5     6    1
    20     6     7    2
    21    18    19    1
    22    19    20    1
    23    20    21    2
    24    20    22   am
    25    22    23   am
    26    23    24    2
    27    23    18    1
    28     6     1    1
    29    17     8   ar
    30    16    11   ar
    31    22    25    1
@<TRIPOS>MOLECULE
*****
 28 31 0 0 0
SMALL
GASTEIGER

@<TRIPOS>ATOM
      1 C         139.1234  141.3994  160.8014 C.3     1  UNL1        0.1456
      2 C         140.0332  140.3574  161.3816 C.2     1  UNL1       -0.0120
      3 C         140.1275  140.1883  162.8690 C.2     1  UNL1        0.0126
      4 C         139.3121  141.0611  163.7763 C.2     1  UNL1        0.0730
      5 N         138.4024  142.1031  163.1961 N.am    1  UNL1       -0.1788
      6 C         138.3080  142.2723  161.7087 C.2     1  UNL1        0.2531
      7 O         137.6823  142.9833  161.4415 O.2     1  UNL1       -0.2725
      8 C         139.4065  140.8920  165.2638 C.ar    1  UNL1        0.0153
      9 C         138.8605  139.6555  165.9141 C.ar    1  UNL1        0.0013
     10 C         138.9548  139.4863  167.4015 C.ar    1  UNL1        0.0000
     11 C         139.5951  140.5537  168.2387 C.ar    1  UNL1        0.0000
     12 C         139.6894  140.3846  169.7261 C.ar    1  UNL1        0.0000
     13 C         140.3296  141.4520  170.5632 C.ar    1  UNL1        0.0000
     14 C         140.8756  142.6885  169.9128 C.ar    1  UNL1        0.0000
     15 C         140.7813  142.8576  168.4254 C.ar    1  UNL1        0.0000
     16 C         140.1410  141.7903  167.5883 C.ar    1  UNL1        0.0000
     17 C         140.0467  141.9594  166.1008 C.ar    1  UNL1        0.0013
     18 C         139.0291  141.5685  159.3139 C.3     1  UNL1        0.2169
     19 O         139.1653  141.9461  157.8686 O.3     1  UNL1       -0.4320
     20 C         138.1668  141.1470  157.0848 C.2     1  UNL1        0.4077
     21 O         137.9582  141.2086  155.6007 O.2     1  UNL1       -0.2260
     22 N         137.4136  140.2755  158.0455 N.am    1  UNL1       -0.2182
     23 C         137.9465  140.5361  159.4233 C.2     1  UNL1        0.2678
     24 O         137.4789  139.8794  160.6883 O.2     1  UNL1       -0.2708
     25 H         136.6955  139.6436  157.8128 H       1  UNL1        0.1610
     26 C         141.0383  142.3859  159.8529 C.3     1  UNL1        0.0041
     27 C         140.1314  142.5656  159.5156 C.3     1  UNL1        0.0462
     28 C         139.9031  144.0120  159.1904 C.3     1  UNL1        0.0041
@<TRIPOS>BOND
     1    26    27    1
     2    27    28    1
     3    27    18    1
     4    18     1    1
     5     1     2    1
     6     2     3    2
     7     3     4    1
     8     4     8    1
     9     8     9   ar
    10     9    10   ar
    11    10    11   ar
    12    11    12   ar
    13    12    13   ar
    14    13    14   ar
    15    14    15   ar
    16    15    16   ar
    17    16    17   ar
    18     4     5    2
    19     5     6    1
    20     6     7    2
    21    18    19    1
    22    19    20    1
    23    20    21    2
    24    20    22   am
    25    22    23   am
    26    23    24    2
    27    23    18    1
    28     6     1    1
    29    17     8   ar
    30    16    11   ar
    31    22    25    1
