@<TRIPOS>MOLECULE
*****
 38 42 0 0 0
SMALL
GASTEIGER

@<TRIPOS>ATOM
      1 C         140.6756  138.8361  159.2083 C.3     1  UNL1        0.0930
      2 C         140.2021  140.2563  159.1128 C.3     1  UNL1        0.0427
      3 C         139.8336  140.7158  160.4924 C.3     1  UNL1        0.0927
      4 N         140.0792  139.5796  161.4404 N.pl3   1  UNL1       -0.3033
      5 C         140.5996  138.4179  160.6468 C.3     1  UNL1        0.1104
      6 C         139.8455  139.6012  162.9220 C.ar    1  UNL1        0.0878
      7 C         138.7198  138.8072  163.5153 C.ar    1  UNL1        0.1543
      8 F         137.8277  137.9914  162.6272 F       1  UNL1       -0.2028
      9 C         138.4862  138.8288  164.9968 C.ar    1  UNL1        0.0356
     10 C         139.3782  139.6445  165.8850 C.ar    1  UNL1        0.0580
     11 C         139.1445  139.6662  167.3665 C.ar    1  UNL1        0.1996
     12 O         138.0188  138.8721  167.9599 O.2     1  UNL1       -0.2864
     13 C         140.0366  140.4819  168.2547 C.ar    1  UNL1        0.0701
     14 C         141.1624  141.2760  167.6612 C.ar    1  UNL1        0.0801
     15 N         141.3961  141.2543  166.1797 N.ar    1  UNL1       -0.3270
     16 C         140.5040  140.4386  165.2916 C.ar    1  UNL1        0.0750
     17 C         140.7376  140.4170  163.8101 C.ar    1  UNL1        0.0890
     18 CL        141.8634  141.2111  163.2166 Cl      1  UNL1       -0.0794
     19 C         139.8030  140.5036  169.7362 C.2     1  UNL1        0.0774
     20 O         140.3994  139.4363  170.6052 O.co2   1  UNL1       -0.5444
     21 O         138.9729  141.5926  170.3487 O.co2   1  UNL1       -0.5444
     22 C         142.5218  142.0484  165.5863 C.3     1  UNL1        0.0857
     23 C         143.0175  143.2867  164.9002 C.3     1  UNL1        0.0245
     24 C         143.9759  142.1855  165.2447 C.3     1  UNL1        0.0245
     25 C         142.5960  137.9584  157.6945 C.2     1  UNL1        0.2339
     26 O         143.5818  138.7852  158.4657 O.2     1  UNL1       -0.2741
     27 N         141.1429  137.9839  158.0658 N.am    1  UNL1       -0.3035
     28 H         140.4959  137.4413  157.5596 H       1  UNL1        0.1495
     29 C         143.0634  137.1062  156.5520 C.3     1  UNL1        0.1488
     30 S         142.1892  136.0037  156.0322 S.3     1  UNL1       -0.0768
     31 N         144.5332  131.7121  158.0242 N.pl3   1  UNL1       -0.3361
     32 C         143.5789  132.6035  157.2861 C.ar    1  UNL1        0.1798
     33 N         142.3853  132.1551  156.4961 N.ar    1  UNL1       -0.1254
     34 N         141.7194  133.3743  155.9302 N.ar    1  UNL1       -0.1332
     35 C         142.5015  134.5761  156.3705 C.ar    1  UNL1        0.1610
     36 S         143.6507  134.0997  157.2085 S.2     1  UNL1       -0.0247
     37 H         144.4018  130.7365  158.0161 H       1  UNL1        0.1442
     38 H         145.2909  132.1027  158.5166 H       1  UNL1        0.1442
@<TRIPOS>UNITY_ATOM_ATTR
20 1
charge -1
@<TRIPOS>BOND
     1    31    32    1
     2    32    33   ar
     3    33    34   ar
     4    34    35   ar
     5    35    30    1
     6    30    29    1
     7    29    25    1
     8    25    26    2
     9    25    27   am
    10    27     1    1
    11     1     2    1
    12     2     3    1
    13     3     4    1
    14     4     6    1
    15     6     7   ar
    16     7     8    1
    17     7     9   ar
    18     9    10   ar
    19    10    11   ar
    20    11    12    2
    21    11    13   ar
    22    13    19    1
    23    19    20   ar
    24    19    21   ar
    25    13    14   ar
    26    14    15   ar
    27    15    22    1
    28    22    23    1
    29    23    24    1
    30    15    16   ar
    31    16    17   ar
    32    17    18    1
    33     4     5    1
    34    35    36   ar
    35    36    32   ar
    36     5     1    1
    37    17     6   ar
    38    16    10   ar
    39    24    22    1
    40    31    37    1
    41    31    38    1
    42    27    28    1
@<TRIPOS>MOLECULE
*****
 38 42 0 0 0
SMALL
GASTEIGER

@<TRIPOS>ATOM
      1 C         138.2681  139.8310  159.5207 C.3     1  UNL1        0.0930
      2 C         139.4638  138.9252  159.5242 C.3     1  UNL1        0.0427
      3 C         139.9729  138.8351  160.9322 C.3     1  UNL1        0.0927
      4 N         139.0920  139.6851  161.7990 N.pl3   1  UNL1       -0.3033
      5 C         138.0383  140.3006  160.9267 C.3     1  UNL1        0.1104
      6 C         139.2388  139.8846  163.2785 C.ar    1  UNL1        0.0878
      7 C         138.8304  138.7961  164.2262 C.ar    1  UNL1        0.1543
      8 F         138.2750  137.5081  163.6946 F       1  UNL1       -0.2028
      9 C         138.9772  138.9956  165.7056 C.ar    1  UNL1        0.0356
     10 C         139.5326  140.2836  166.2372 C.ar    1  UNL1        0.0580
     11 C         139.6795  140.4831  167.7167 C.ar    1  UNL1        0.1996
     12 O         139.2710  139.3947  168.6644 O.2     1  UNL1       -0.2864
     13 C         140.2349  141.7712  168.2482 C.ar    1  UNL1        0.0701
     14 C         140.6434  142.8597  167.3004 C.ar    1  UNL1        0.0801
     15 N         140.4965  142.6601  165.8210 N.ar    1  UNL1       -0.3270
     16 C         139.9411  141.3721  165.2894 C.ar    1  UNL1        0.0750
     17 C         139.7942  141.1726  163.8101 C.ar    1  UNL1        0.0890
     18 CL        140.2027  142.2611  162.8622 Cl      1  UNL1       -0.0794
     19 C         140.3817  141.9707  169.7276 C.2     1  UNL1        0.0774
     20 O         141.7480  142.0546  170.3411 O.co2   1  UNL1       -0.5444
     21 O         139.1624  142.0864  170.5936 O.co2   1  UNL1       -0.5444
     22 C         140.9050  143.7486  164.8733 C.3     1  UNL1        0.0857
     23 C         141.9636  144.4351  164.0621 C.3     1  UNL1        0.0245
     24 C         140.5539  144.9474  164.0428 C.3     1  UNL1        0.0245
     25 C         137.8672  141.3476  157.4497 C.2     1  UNL1        0.2339
     26 O         139.1096  142.1221  157.7764 O.2     1  UNL1       -0.2741
     27 N         137.4464  140.2020  158.3219 N.am    1  UNL1       -0.3035
     28 H         136.6311  139.6937  158.1075 H       1  UNL1        0.1495
     29 C         137.0455  141.7186  156.2508 C.3     1  UNL1        0.1488
     30 S         136.1752  140.6906  155.5908 S.3     1  UNL1       -0.0768
     31 N         130.8999  140.8294  155.7696 N.pl3   1  UNL1       -0.3361
     32 C         132.3330  140.5684  156.1273 C.ar    1  UNL1        0.1798
     33 N         132.8204  139.8683  157.3611 N.ar    1  UNL1       -0.1254
     34 N         134.3190  139.8289  157.3103 N.ar    1  UNL1       -0.1332
     35 C         134.7578  140.5046  156.0451 C.ar    1  UNL1        0.1610
     36 S         133.5304  140.9616  155.3139 S.2     1  UNL1       -0.0247
     37 H         130.1801  140.5309  156.3714 H       1  UNL1        0.1442
     38 H         130.6790  141.2991  154.9330 H       1  UNL1        0.1442
@<TRIPOS>UNITY_ATOM_ATTR
20 1
charge -1
@<TRIPOS>BOND
     1    31    32    1
     2    32    33   ar
     3    33    34   ar
     4    34    35   ar
     5    35    30    1
     6    30    29    1
     7    29    25    1
     8    25    26    2
     9    25    27   am
    10    27     1    1
    11     1     2    1
    12     2     3    1
    13     3     4    1
    14     4     6    1
    15     6     7   ar
    16     7     8    1
    17     7     9   ar
    18     9    10   ar
    19    10    11   ar
    20    11    12    2
    21    11    13   ar
    22    13    19    1
    23    19    20   ar
    24    19    21   ar
    25    13    14   ar
    26    14    15   ar
    27    15    22    1
    28    22    23    1
    29    23    24    1
    30    15    16   ar
    31    16    17   ar
    32    17    18    1
    33     4     5    1
    34    35    36   ar
    35    36    32   ar
    36     5     1    1
    37    17     6   ar
    38    16    10   ar
    39    24    22    1
    40    31    37    1
    41    31    38    1
    42    27    28    1
@<TRIPOS>MOLECULE
*****
 38 42 0 0 0
SMALL
GASTEIGER

@<TRIPOS>ATOM
      1 C         143.6477  140.7876  160.8083 C.3     1  UNL1        0.0930
      2 C         144.0693  139.4343  161.2995 C.3     1  UNL1        0.0427
      3 C         143.8596  139.3941  162.7842 C.3     1  UNL1        0.0927
      4 N         143.3086  140.7224  163.2107 N.pl3   1  UNL1       -0.3033
      5 C         143.1776  141.5836  161.9895 C.3     1  UNL1        0.1104
      6 C         142.9512  141.1198  164.6123 C.ar    1  UNL1        0.0878
      7 C         143.8721  142.0048  165.3989 C.ar    1  UNL1        0.1543
      8 F         145.1503  142.4924  164.7839 F       1  UNL1       -0.2028
      9 C         143.5147  142.4021  166.8004 C.ar    1  UNL1        0.0356
     10 C         142.2364  141.9144  167.4154 C.ar    1  UNL1        0.0580
     11 C         141.8790  142.3118  168.8170 C.ar    1  UNL1        0.1996
     12 O         142.7999  143.1968  169.6035 O.2     1  UNL1       -0.2864
     13 C         140.6007  141.8242  169.4319 C.ar    1  UNL1        0.0701
     14 C         139.6798  140.9391  168.6453 C.ar    1  UNL1        0.0801
     15 N         140.0372  140.5418  167.2438 N.ar    1  UNL1       -0.3270
     16 C         141.3155  141.0295  166.6288 C.ar    1  UNL1        0.0750
     17 C         141.6729  140.6321  165.2273 C.ar    1  UNL1        0.0890
     18 CL        140.7520  139.7471  164.4406 Cl      1  UNL1       -0.0794
     19 C         140.2433  142.2215  170.8335 C.2     1  UNL1        0.0774
     20 O         139.3277  143.3853  171.0727 O.co2   1  UNL1       -0.5444
     21 O         140.8015  141.4550  171.9958 O.co2   1  UNL1       -0.5444
     22 C         139.1163  139.6568  166.4572 C.3     1  UNL1        0.0857
     23 C         138.0985  139.4809  165.3695 C.3     1  UNL1        0.0245
     24 C         138.5391  138.2999  166.1825 C.3     1  UNL1        0.0245
     25 C         142.6330  140.8189  158.4168 C.2     1  UNL1        0.2339
     26 O         141.5356  139.9023  158.8704 O.2     1  UNL1       -0.2741
     27 N         143.6890  141.2615  159.3858 N.am    1  UNL1       -0.3035
     28 H         144.4093  141.8630  159.0880 H       1  UNL1        0.1495
     29 C         142.6743  141.2928  156.9942 C.3     1  UNL1        0.1488
     30 S         143.1884  142.6655  156.6756 S.3     1  UNL1       -0.0768
     31 N         140.0678  146.9083  157.0499 N.pl3   1  UNL1       -0.3361
     32 C         141.0485  145.8246  157.3869 C.ar    1  UNL1        0.1798
     33 N         141.7462  145.6448  158.7026 N.ar    1  UNL1       -0.1254
     34 N         142.6327  144.4395  158.5963 N.ar    1  UNL1       -0.1332
     35 C         142.4829  143.8744  157.2149 C.ar    1  UNL1        0.1610
     36 S         141.5039  144.7305  156.4675 S.2     1  UNL1       -0.0247
     37 H         139.8310  147.5852  157.7245 H       1  UNL1        0.1442
     38 H         139.6608  146.9428  156.1542 H       1  UNL1        0.1442
@<TRIPOS>UNITY_ATOM_ATTR
20 1
charge -1
@<TRIPOS>BOND
     1    31    32    1
     2    32    33   ar
     3    33    34   ar
     4    34    35   ar
     5    35    30    1
     6    30    29    1
     7    29    25    1
     8    25    26    2
     9    25    27   am
    10    27     1    1
    11     1     2    1
    12     2     3    1
    13     3     4    1
    14     4     6    1
    15     6     7   ar
    16     7     8    1
    17     7     9   ar
    18     9    10   ar
    19    10    11   ar
    20    11    12    2
    21    11    13   ar
    22    13    19    1
    23    19    20   ar
    24    19    21   ar
    25    13    14   ar
    26    14    15   ar
    27    15    22    1
    28    22    23    1
    29    23    24    1
    30    15    16   ar
    31    16    17   ar
    32    17    18    1
    33     4     5    1
    34    35    36   ar
    35    36    32   ar
    36     5     1    1
    37    17     6   ar
    38    16    10   ar
    39    24    22    1
    40    31    37    1
    41    31    38    1
    42    27    28    1
@<TRIPOS>MOLECULE
*****
 38 42 0 0 0
SMALL
GASTEIGER

@<TRIPOS>ATOM
      1 C         140.7069  138.7712  160.5710 C.3     1  UNL1        0.0930
      2 C         139.3846  138.2436  161.0436 C.3     1  UNL1        0.0427
      3 C         139.2848  138.4969  162.5186 C.3     1  UNL1        0.0927
      4 N         140.5454  139.1811  162.9578 N.pl3   1  UNL1       -0.3033
      5 C         141.4243  139.3506  161.7541 C.3     1  UNL1        0.1104
      6 C         140.8702  139.6189  164.3553 C.ar    1  UNL1        0.0878
      7 C         141.6140  138.6976  165.2760 C.ar    1  UNL1        0.1543
      8 F         142.0332  137.3385  164.7994 F       1  UNL1       -0.2028
      9 C         141.9388  139.1354  166.6735 C.ar    1  UNL1        0.0356
     10 C         141.5196  140.4945  167.1501 C.ar    1  UNL1        0.0580
     11 C         141.8444  140.9323  168.5476 C.ar    1  UNL1        0.1996
     12 O         142.5882  140.0110  169.4684 O.2     1  UNL1       -0.2864
     13 C         141.4252  142.2914  169.0242 C.ar    1  UNL1        0.0701
     14 C         140.6813  143.2127  168.1034 C.ar    1  UNL1        0.0801
     15 N         140.3566  142.7749  166.7060 N.ar    1  UNL1       -0.3270
     16 C         140.7757  141.4158  166.2293 C.ar    1  UNL1        0.0750
     17 C         140.4510  140.9780  164.8319 C.ar    1  UNL1        0.0890
     18 CL        139.7071  141.8992  163.9110 Cl      1  UNL1       -0.0794
     19 C         141.7499  142.7292  170.4217 C.2     1  UNL1        0.0774
     20 O         142.8831  143.6814  170.6651 O.co2   1  UNL1       -0.5444
     21 O         140.9415  142.2149  171.5758 O.co2   1  UNL1       -0.5444
     22 C         139.6127  143.6961  165.7852 C.3     1  UNL1        0.0857
     23 C         139.6112  144.6674  164.6421 C.3     1  UNL1        0.0245
     24 C         138.3260  144.3206  165.3334 C.3     1  UNL1        0.0245
     25 C         142.4227  137.8932  158.8288 C.2     1  UNL1        0.2339
     26 O         143.1095  137.1033  159.9033 O.2     1  UNL1       -0.2741
     27 N         141.2214  138.7271  159.1627 N.am    1  UNL1       -0.3035
     28 H         140.7706  139.2456  158.4575 H       1  UNL1        0.1495
     29 C         142.9372  137.8491  157.4205 C.3     1  UNL1        0.1488
     30 S         142.2220  137.0316  156.3860 S.3     1  UNL1       -0.0768
     31 N         143.7900  132.1291  157.5632 N.pl3   1  UNL1       -0.3361
     32 C         143.0670  133.2834  156.9350 C.ar    1  UNL1        0.1798
     33 N         142.0078  133.1898  155.8769 N.ar    1  UNL1       -0.1254
     34 N         141.5624  134.5825  155.5425 N.ar    1  UNL1       -0.1332
     35 C         142.3462  135.5368  156.3938 C.ar    1  UNL1        0.1610
     36 S         143.2761  134.7339  157.2544 S.2     1  UNL1       -0.0247
     37 H         143.5817  131.2078  157.2855 H       1  UNL1        0.1442
     38 H         144.4728  132.2927  158.2533 H       1  UNL1        0.1442
@<TRIPOS>UNITY_ATOM_ATTR
20 1
charge -1
@<TRIPOS>BOND
     1    31    32    1
     2    32    33   ar
     3    33    34   ar
     4    34    35   ar
     5    35    30    1
     6    30    29    1
     7    29    25    1
     8    25    26    2
     9    25    27   am
    10    27     1    1
    11     1     2    1
    12     2     3    1
    13     3     4    1
    14     4     6    1
    15     6     7   ar
    16     7     8    1
    17     7     9   ar
    18     9    10   ar
    19    10    11   ar
    20    11    12    2
    21    11    13   ar
    22    13    19    1
    23    19    20   ar
    24    19    21   ar
    25    13    14   ar
    26    14    15   ar
    27    15    22    1
    28    22    23    1
    29    23    24    1
    30    15    16   ar
    31    16    17   ar
    32    17    18    1
    33     4     5    1
    34    35    36   ar
    35    36    32   ar
    36     5     1    1
    37    17     6   ar
    38    16    10   ar
    39    24    22    1
    40    31    37    1
    41    31    38    1
    42    27    28    1
@<TRIPOS>MOLECULE
*****
 38 42 0 0 0
SMALL
GASTEIGER

@<TRIPOS>ATOM
      1 C         143.6553  139.6938  160.3658 C.3     1  UNL1        0.0930
      2 C         144.1713  141.0836  160.5946 C.3     1  UNL1        0.0427
      3 C         144.0134  141.4027  162.0517 C.3     1  UNL1        0.0927
      4 N         143.3999  140.2101  162.7236 N.pl3   1  UNL1       -0.3033
      5 C         143.1786  139.1539  161.6816 C.3     1  UNL1        0.1104
      6 C         143.0663  140.0940  164.1814 C.ar    1  UNL1        0.0878
      7 C         143.9139  139.2424  165.0793 C.ar    1  UNL1        0.1543
      8 F         145.0952  138.5068  164.5194 F       1  UNL1       -0.2028
      9 C         143.5802  139.1263  166.5370 C.ar    1  UNL1        0.0356
     10 C         142.3989  139.8619  167.0970 C.ar    1  UNL1        0.0580
     11 C         142.0653  139.7457  168.5548 C.ar    1  UNL1        0.1996
     12 O         142.9129  138.8941  169.4527 O.2     1  UNL1       -0.2864
     13 C         140.8840  140.4813  169.1147 C.ar    1  UNL1        0.0701
     14 C         140.0364  141.3330  168.2168 C.ar    1  UNL1        0.0801
     15 N         140.3700  141.4491  166.7590 N.ar    1  UNL1       -0.3270
     16 C         141.5513  140.7135  166.1991 C.ar    1  UNL1        0.0750
     17 C         141.8850  140.8296  164.7413 C.ar    1  UNL1        0.0890
     18 CL        141.0374  141.6812  163.8434 Cl      1  UNL1       -0.0794
     19 C         140.5503  140.3652  170.5725 C.2     1  UNL1        0.0774
     20 O         139.3645  139.5568  171.0084 O.co2   1  UNL1       -0.5444
     21 O         141.4026  141.0577  171.5944 O.co2   1  UNL1       -0.5444
     22 C         139.5224  142.3007  165.8611 C.3     1  UNL1        0.0857
     23 C         139.1646  143.6476  165.3063 C.3     1  UNL1        0.0245
     24 C         138.4121  142.4289  164.8608 C.3     1  UNL1        0.0245
     25 C         142.4585  139.1556  158.1235 C.2     1  UNL1        0.2339
     26 O         141.3282  140.0635  158.5089 O.2     1  UNL1       -0.2741
     27 N         143.6220  138.9708  159.0520 N.am    1  UNL1       -0.3035
     28 H         144.3638  138.3749  158.7991 H       1  UNL1        0.1495
     29 C         142.4251  138.4326  156.8097 C.3     1  UNL1        0.1488
     30 S         141.4978  137.2695  156.6170 S.3     1  UNL1       -0.0768
     31 N         144.6920  133.0734  156.3519 N.pl3   1  UNL1       -0.3361
     32 C         143.5195  133.9884  156.1567 C.ar    1  UNL1        0.1798
     33 N         142.2866  133.6836  155.3585 N.ar    1  UNL1       -0.1254
     34 N         141.3792  134.8756  155.4338 N.ar    1  UNL1       -0.1332
     35 C         142.0513  135.9171  156.2785 C.ar    1  UNL1        0.1610
     36 S         143.3741  135.3687  156.7252 S.2     1  UNL1       -0.0247
     37 H         144.6947  132.1812  155.9359 H       1  UNL1        0.1442
     38 H         145.4587  133.3651  156.8961 H       1  UNL1        0.1442
@<TRIPOS>UNITY_ATOM_ATTR
20 1
charge -1
@<TRIPOS>BOND
     1    31    32    1
     2    32    33   ar
     3    33    34   ar
     4    34    35   ar
     5    35    30    1
     6    30    29    1
     7    29    25    1
     8    25    26    2
     9    25    27   am
    10    27     1    1
    11     1     2    1
    12     2     3    1
    13     3     4    1
    14     4     6    1
    15     6     7   ar
    16     7     8    1
    17     7     9   ar
    18     9    10   ar
    19    10    11   ar
    20    11    12    2
    21    11    13   ar
    22    13    19    1
    23    19    20   ar
    24    19    21   ar
    25    13    14   ar
    26    14    15   ar
    27    15    22    1
    28    22    23    1
    29    23    24    1
    30    15    16   ar
    31    16    17   ar
    32    17    18    1
    33     4     5    1
    34    35    36   ar
    35    36    32   ar
    36     5     1    1
    37    17     6   ar
    38    16    10   ar
    39    24    22    1
    40    31    37    1
    41    31    38    1
    42    27    28    1
@<TRIPOS>MOLECULE
*****
 38 42 0 0 0
SMALL
GASTEIGER

@<TRIPOS>ATOM
      1 C         139.2169  142.9647  159.4946 C.3     1  UNL1        0.0930
      2 C         140.7164  142.9646  159.4521 C.3     1  UNL1        0.0427
      3 C         141.2198  142.8215  160.8578 C.3     1  UNL1        0.0927
      4 N         140.0316  142.7333  161.7691 N.pl3   1  UNL1       -0.3033
      5 C         138.7938  142.8218  160.9265 C.3     1  UNL1        0.1104
      6 C         140.0739  142.5829  163.2610 C.ar    1  UNL1        0.0878
      7 C         140.1461  143.7993  164.1356 C.ar    1  UNL1        0.1543
      8 F         140.1762  145.1662  163.5184 F       1  UNL1       -0.2028
      9 C         140.1883  143.6489  165.6274 C.ar    1  UNL1        0.0356
     10 C         140.1583  142.2821  166.2446 C.ar    1  UNL1        0.0580
     11 C         140.2005  142.1317  167.7365 C.ar    1  UNL1        0.1996
     12 O         140.2727  143.3482  168.6111 O.2     1  UNL1       -0.2864
     13 C         140.1704  140.7649  168.3537 C.ar    1  UNL1        0.0701
     14 C         140.0981  139.5485  167.4789 C.ar    1  UNL1        0.0801
     15 N         140.0559  139.6989  165.9871 N.ar    1  UNL1       -0.3270
     16 C         140.0860  141.0657  165.3699 C.ar    1  UNL1        0.0750
     17 C         140.0438  141.2161  163.8781 C.ar    1  UNL1        0.0890
     18 CL        139.9715  139.9996  163.0034 Cl      1  UNL1       -0.0794
     19 C         140.2126  140.6145  169.8455 C.2     1  UNL1        0.0774
     20 O         141.4397  141.0220  170.6059 O.co2   1  UNL1       -0.5444
     21 O         139.0277  140.0567  170.5769 O.co2   1  UNL1       -0.5444
     22 C         139.9837  138.4824  165.1125 C.3     1  UNL1        0.0857
     23 C         139.1727  137.4783  164.3482 C.3     1  UNL1        0.0245
     24 C         140.6694  137.3796  164.3618 C.3     1  UNL1        0.0245
     25 C         137.7743  141.8526  157.6420 C.2     1  UNL1        0.2339
     26 O         138.1628  140.4969  158.1533 O.2     1  UNL1       -0.2741
     27 N         138.3014  143.0864  158.3126 N.am    1  UNL1       -0.3035
     28 H         138.0465  143.9762  157.9770 H       1  UNL1        0.1495
     29 C         136.8589  141.9743  156.4600 C.3     1  UNL1        0.1488
     30 S         136.1571  140.7605  155.9268 S.3     1  UNL1       -0.0768
     31 N         130.8817  140.7508  155.7035 N.pl3   1  UNL1       -0.3361
     32 C         132.2906  140.5149  156.1609 C.ar    1  UNL1        0.1798
     33 N         132.7033  139.7814  157.4025 N.ar    1  UNL1       -0.1254
     34 N         134.2019  139.7841  157.4659 N.ar    1  UNL1       -0.1332
     35 C         134.7154  140.5193  156.2635 C.ar    1  UNL1        0.1610
     36 S         133.5341  140.9709  155.4570 S.2     1  UNL1       -0.0247
     37 H         130.1274  140.4104  156.2369 H       1  UNL1        0.1442
     38 H         130.7111  141.2461  154.8700 H       1  UNL1        0.1442
@<TRIPOS>UNITY_ATOM_ATTR
20 1
charge -1
@<TRIPOS>BOND
     1    31    32    1
     2    32    33   ar
     3    33    34   ar
     4    34    35   ar
     5    35    30    1
     6    30    29    1
     7    29    25    1
     8    25    26    2
     9    25    27   am
    10    27     1    1
    11     1     2    1
    12     2     3    1
    13     3     4    1
    14     4     6    1
    15     6     7   ar
    16     7     8    1
    17     7     9   ar
    18     9    10   ar
    19    10    11   ar
    20    11    12    2
    21    11    13   ar
    22    13    19    1
    23    19    20   ar
    24    19    21   ar
    25    13    14   ar
    26    14    15   ar
    27    15    22    1
    28    22    23    1
    29    23    24    1
    30    15    16   ar
    31    16    17   ar
    32    17    18    1
    33     4     5    1
    34    35    36   ar
    35    36    32   ar
    36     5     1    1
    37    17     6   ar
    38    16    10   ar
    39    24    22    1
    40    31    37    1
    41    31    38    1
    42    27    28    1
@<TRIPOS>MOLECULE
*****
 38 42 0 0 0
SMALL
GASTEIGER

@<TRIPOS>ATOM
      1 C         143.2126  141.1621  160.6510 C.3     1  UNL1        0.0930
      2 C         144.3143  140.2419  161.0866 C.3     1  UNL1        0.0427
      3 C         144.3413  140.2285  162.5863 C.3     1  UNL1        0.0927
      4 N         143.2565  141.1405  163.0776 N.pl3   1  UNL1       -0.3033
      5 C         142.5589  141.7174  161.8816 C.3     1  UNL1        0.1104
      6 C         142.9270  141.4254  164.5130 C.ar    1  UNL1        0.0878
      7 C         143.8507  142.2683  165.3414 C.ar    1  UNL1        0.1543
      8 F         145.1038  142.8263  164.7346 F       1  UNL1       -0.2028
      9 C         143.5212  142.5533  166.7768 C.ar    1  UNL1        0.0356
     10 C         142.2680  141.9953  167.3837 C.ar    1  UNL1        0.0580
     11 C         141.9386  142.2803  168.8191 C.ar    1  UNL1        0.1996
     12 O         142.8622  143.1232  169.6475 O.2     1  UNL1       -0.2864
     13 C         140.6854  141.7223  169.4259 C.ar    1  UNL1        0.0701
     14 C         139.7617  140.8794  168.5974 C.ar    1  UNL1        0.0801
     15 N         140.0912  140.5944  167.1621 N.ar    1  UNL1       -0.3270
     16 C         141.3444  141.1524  166.5552 C.ar    1  UNL1        0.0750
     17 C         141.6739  140.8675  165.1199 C.ar    1  UNL1        0.0890
     18 CL        140.7502  140.0245  164.2914 Cl      1  UNL1       -0.0794
     19 C         140.3559  142.0072  170.8613 C.2     1  UNL1        0.0774
     20 O         139.5107  143.1948  171.2153 O.co2   1  UNL1       -0.5444
     21 O         140.8716  141.1046  171.9427 O.co2   1  UNL1       -0.5444
     22 C         139.1676  139.7515  166.3337 C.3     1  UNL1        0.0857
     23 C         138.0399  139.6417  165.3506 C.3     1  UNL1        0.0245
     24 C         138.6954  138.4015  165.8817 C.3     1  UNL1        0.0245
     25 C         142.3932  140.3697  158.3164 C.2     1  UNL1        0.2339
     26 O         142.3357  138.9565  158.8162 O.2     1  UNL1       -0.2741
     27 N         142.8316  141.4725  159.2338 N.am    1  UNL1       -0.3035
     28 H         142.8693  142.3999  158.9058 H       1  UNL1        0.1495
     29 C         142.0122  140.6801  156.8992 C.3     1  UNL1        0.1488
     30 S         142.9460  140.3320  155.7781 S.3     1  UNL1       -0.0768
     31 N         142.9058  135.2016  154.5304 N.pl3   1  UNL1       -0.3361
     32 C         143.3588  136.5515  155.0019 C.ar    1  UNL1        0.1798
     33 N         144.7231  136.8906  155.5250 N.ar    1  UNL1       -0.1254
     34 N         144.7345  138.3481  155.8794 N.ar    1  UNL1       -0.1332
     35 C         143.3773  138.9097  155.5754 C.ar    1  UNL1        0.1610
     36 S         142.5271  137.7994  155.0330 S.2     1  UNL1       -0.0247
     37 H         143.5286  134.4393  154.5485 H       1  UNL1        0.1442
     38 H         141.9857  135.0778  154.2028 H       1  UNL1        0.1442
@<TRIPOS>UNITY_ATOM_ATTR
20 1
charge -1
@<TRIPOS>BOND
     1    31    32    1
     2    32    33   ar
     3    33    34   ar
     4    34    35   ar
     5    35    30    1
     6    30    29    1
     7    29    25    1
     8    25    26    2
     9    25    27   am
    10    27     1    1
    11     1     2    1
    12     2     3    1
    13     3     4    1
    14     4     6    1
    15     6     7   ar
    16     7     8    1
    17     7     9   ar
    18     9    10   ar
    19    10    11   ar
    20    11    12    2
    21    11    13   ar
    22    13    19    1
    23    19    20   ar
    24    19    21   ar
    25    13    14   ar
    26    14    15   ar
    27    15    22    1
    28    22    23    1
    29    23    24    1
    30    15    16   ar
    31    16    17   ar
    32    17    18    1
    33     4     5    1
    34    35    36   ar
    35    36    32   ar
    36     5     1    1
    37    17     6   ar
    38    16    10   ar
    39    24    22    1
    40    31    37    1
    41    31    38    1
    42    27    28    1
@<TRIPOS>MOLECULE
*****
 38 42 0 0 0
SMALL
GASTEIGER

@<TRIPOS>ATOM
      1 C         141.6953  142.2438  160.0793 C.3     1  UNL1        0.0930
      2 C         140.9804  143.5233  160.3985 C.3     1  UNL1        0.0427
      3 C         141.0350  143.7269  161.8836 C.3     1  UNL1        0.0927
      4 N         141.7837  142.5732  162.4823 N.pl3   1  UNL1       -0.3033
      5 C         142.1917  141.6566  161.3672 C.3     1  UNL1        0.1104
      6 C         142.0734  142.3715  163.9402 C.ar    1  UNL1        0.0878
      7 C         143.1682  143.1541  164.6026 C.ar    1  UNL1        0.1543
      8 F         143.9734  144.1384  163.8071 F       1  UNL1       -0.2028
      9 C         143.4580  142.9523  166.0604 C.ar    1  UNL1        0.0356
     10 C         142.6528  141.9680  166.8559 C.ar    1  UNL1        0.0580
     11 C         142.9426  141.7662  168.3138 C.ar    1  UNL1        0.1996
     12 O         144.0374  142.5488  168.9762 O.2     1  UNL1       -0.2864
     13 C         142.1374  140.7819  169.1093 C.ar    1  UNL1        0.0701
     14 C         141.0425  139.9992  168.4468 C.ar    1  UNL1        0.0801
     15 N         140.7528  140.2010  166.9890 N.ar    1  UNL1       -0.3270
     16 C         141.5580  141.1853  166.1935 C.ar    1  UNL1        0.0750
     17 C         141.2683  141.3871  164.7357 C.ar    1  UNL1        0.0890
     18 CL        140.1734  140.6044  164.0733 Cl      1  UNL1       -0.0794
     19 C         142.4271  140.5801  170.5671 C.2     1  UNL1        0.0774
     20 O         143.5071  139.6300  170.9927 O.co2   1  UNL1       -0.5444
     21 O         141.6369  141.3284  171.5994 O.co2   1  UNL1       -0.5444
     22 C         139.6580  139.4183  166.3266 C.3     1  UNL1        0.0857
     23 C         139.2141  138.2422  165.5084 C.3     1  UNL1        0.0245
     24 C         138.2056  139.2389  165.9976 C.3     1  UNL1        0.0245
     25 C         142.7887  142.3251  157.7240 C.2     1  UNL1        0.2339
     26 O         143.5106  143.5844  158.1026 O.2     1  UNL1       -0.2741
     27 N         141.8810  141.6549  158.7124 N.am    1  UNL1       -0.3035
     28 H         141.4072  140.8284  158.4638 H       1  UNL1        0.1495
     29 C         142.9745  141.7362  156.3570 C.3     1  UNL1        0.1488
     30 S         143.8612  140.5410  156.1694 S.3     1  UNL1       -0.0768
     31 N         142.3501  135.4961  156.5503 N.pl3   1  UNL1       -0.3361
     32 C         142.7628  136.8926  156.9097 C.ar    1  UNL1        0.1798
     33 N         142.9092  137.4388  158.2990 N.ar    1  UNL1       -0.1254
     34 N         143.3385  138.8720  158.1908 N.ar    1  UNL1       -0.1332
     35 C         143.4574  139.2115  156.7346 C.ar    1  UNL1        0.1610
     36 S         143.1016  137.9882  155.9429 S.2     1  UNL1       -0.0247
     37 H         142.1470  134.8447  157.2601 H       1  UNL1        0.1442
     38 H         142.2822  135.2307  155.6047 H       1  UNL1        0.1442
@<TRIPOS>UNITY_ATOM_ATTR
20 1
charge -1
@<TRIPOS>BOND
     1    31    32    1
     2    32    33   ar
     3    33    34   ar
     4    34    35   ar
     5    35    30    1
     6    30    29    1
     7    29    25    1
     8    25    26    2
     9    25    27   am
    10    27     1    1
    11     1     2    1
    12     2     3    1
    13     3     4    1
    14     4     6    1
    15     6     7   ar
    16     7     8    1
    17     7     9   ar
    18     9    10   ar
    19    10    11   ar
    20    11    12    2
    21    11    13   ar
    22    13    19    1
    23    19    20   ar
    24    19    21   ar
    25    13    14   ar
    26    14    15   ar
    27    15    22    1
    28    22    23    1
    29    23    24    1
    30    15    16   ar
    31    16    17   ar
    32    17    18    1
    33     4     5    1
    34    35    36   ar
    35    36    32   ar
    36     5     1    1
    37    17     6   ar
    38    16    10   ar
    39    24    22    1
    40    31    37    1
    41    31    38    1
    42    27    28    1
@<TRIPOS>MOLECULE
*****
 38 42 0 0 0
SMALL
GASTEIGER

@<TRIPOS>ATOM
      1 C         140.7827  139.2948  160.4333 C.3     1  UNL1        0.0930
      2 C         141.3142  137.9568  160.8544 C.3     1  UNL1        0.0427
      3 C         141.2374  137.8774  162.3503 C.3     1  UNL1        0.0927
      4 N         140.6584  139.1663  162.8538 N.pl3   1  UNL1       -0.3033
      5 C         140.3774  140.0423  161.6690 C.3     1  UNL1        0.1104
      6 C         140.4049  139.5176  164.2899 C.ar    1  UNL1        0.0878
      7 C         139.3452  138.7911  165.0639 C.ar    1  UNL1        0.1543
      8 F         138.5388  137.7134  164.4019 F       1  UNL1       -0.2028
      9 C         139.0917  139.1424  166.5000 C.ar    1  UNL1        0.0356
     10 C         139.8981  140.2202  167.1620 C.ar    1  UNL1        0.0580
     11 C         139.6446  140.5714  168.5982 C.ar    1  UNL1        0.1996
     12 O         138.5848  139.8450  169.3722 O.2     1  UNL1       -0.2864
     13 C         140.4509  141.6492  169.2602 C.ar    1  UNL1        0.0701
     14 C         141.5108  142.3756  168.4861 C.ar    1  UNL1        0.0801
     15 N         141.7642  142.0243  167.0501 N.ar    1  UNL1       -0.3270
     16 C         140.9579  140.9466  166.3880 C.ar    1  UNL1        0.0750
     17 C         141.2113  140.5953  164.9520 C.ar    1  UNL1        0.0890
     18 CL        142.2711  141.3218  164.1779 Cl      1  UNL1       -0.0794
     19 C         140.1975  142.0005  170.6963 C.2     1  UNL1        0.0774
     20 O         140.7234  141.1171  171.7886 O.co2   1  UNL1       -0.5444
     21 O         139.4182  143.2352  171.0401 O.co2   1  UNL1       -0.5444
     22 C         142.8240  142.7508  166.2761 C.3     1  UNL1        0.0857
     23 C         143.2113  143.7222  165.2008 C.3     1  UNL1        0.0245
     24 C         144.2721  143.0376  166.0107 C.3     1  UNL1        0.0245
     25 C         141.7730  140.6374  158.4416 C.2     1  UNL1        0.2339
     26 O         142.9780  140.9754  159.2686 O.2     1  UNL1       -0.2741
     27 N         140.6753  139.7971  159.0240 N.am    1  UNL1       -0.3035
     28 H         139.8845  139.5753  158.4812 H       1  UNL1        0.1495
     29 C         141.6656  141.1397  157.0323 C.3     1  UNL1        0.1488
     30 S         141.4848  142.6055  156.7702 S.3     1  UNL1       -0.0768
     31 N         139.6164  145.6713  160.6419 N.pl3   1  UNL1       -0.3361
     32 C         140.5528  144.9783  159.6971 C.ar    1  UNL1        0.1798
     33 N         142.0453  145.1255  159.6686 N.ar    1  UNL1       -0.1254
     34 N         142.5761  144.2545  158.5687 N.ar    1  UNL1       -0.1332
     35 C         141.4116  143.5691  157.9174 C.ar    1  UNL1        0.1610
     36 S         140.1612  144.0164  158.6148 S.2     1  UNL1       -0.0247
     37 H         139.9710  146.2883  161.3222 H       1  UNL1        0.1442
     38 H         138.6472  145.5091  160.5818 H       1  UNL1        0.1442
@<TRIPOS>UNITY_ATOM_ATTR
20 1
charge -1
@<TRIPOS>BOND
     1    31    32    1
     2    32    33   ar
     3    33    34   ar
     4    34    35   ar
     5    35    30    1
     6    30    29    1
     7    29    25    1
     8    25    26    2
     9    25    27   am
    10    27     1    1
    11     1     2    1
    12     2     3    1
    13     3     4    1
    14     4     6    1
    15     6     7   ar
    16     7     8    1
    17     7     9   ar
    18     9    10   ar
    19    10    11   ar
    20    11    12    2
    21    11    13   ar
    22    13    19    1
    23    19    20   ar
    24    19    21   ar
    25    13    14   ar
    26    14    15   ar
    27    15    22    1
    28    22    23    1
    29    23    24    1
    30    15    16   ar
    31    16    17   ar
    32    17    18    1
    33     4     5    1
    34    35    36   ar
    35    36    32   ar
    36     5     1    1
    37    17     6   ar
    38    16    10   ar
    39    24    22    1
    40    31    37    1
    41    31    38    1
    42    27    28    1
