@<TRIPOS>MOLECULE
*****
 35 38 0 0 0
SMALL
GASTEIGER

@<TRIPOS>ATOM
      1 C         141.8774  143.6329  162.9892 C.3     1  UNL1        0.1751
      2 C         142.1725  143.6425  161.5185 C.ar    1  UNL1        0.0089
      3 C         143.2583  142.9984  160.7085 C.ar    1  UNL1       -0.0021
      4 C         143.2984  143.1898  159.2213 C.ar    1  UNL1       -0.0003
      5 C         142.2528  144.0254  158.5442 C.ar    1  UNL1        0.0001
      6 C         141.1670  144.6695  159.3542 C.ar    1  UNL1        0.0043
      7 C         141.1269  144.4781  160.8414 C.ar    1  UNL1        0.0516
      8 C         140.1856  144.9849  161.8936 C.2     1  UNL1        0.2493
      9 O         138.9903  145.8604  161.6594 O.2     1  UNL1       -0.2699
     10 N         140.6494  144.4626  163.2210 N.am    1  UNL1       -0.2657
     11 O         143.8518  143.5921  164.6774 O.2     1  UNL1       -0.2729
     12 C         142.6710  142.9190  164.0430 C.2     1  UNL1        0.2451
     13 N         142.2837  141.5318  164.4625 N.am    1  UNL1       -0.2988
     14 H         141.5086  141.0900  164.0461 H       1  UNL1        0.1498
     15 C         143.0773  140.8179  165.5163 C.3     1  UNL1        0.1164
     16 C         142.6257  140.8512  166.9463 C.ar    1  UNL1       -0.0025
     17 C         142.6619  139.6006  167.7736 C.ar    1  UNL1       -0.0003
     18 C         142.2104  139.6340  169.2036 C.ar    1  UNL1        0.0293
     19 C         141.7226  140.9180  169.8064 C.ar    1  UNL1        0.1440
     20 F         141.2710  140.9514  171.2364 F       1  UNL1       -0.2042
     21 C         141.6864  142.1687  168.9791 C.ar    1  UNL1        0.0985
     22 C         142.1380  142.1353  167.5490 C.ar    1  UNL1        0.0035
     23 C         141.1986  143.4528  169.5818 C.3     1  UNL1        0.4207
     24 F         140.7108  144.7369  170.1844 F       1  UNL1       -0.1658
     25 F         139.9275  143.3400  168.7934 F       1  UNL1       -0.1658
     26 F         142.4698  143.5655  170.3702 F       1  UNL1       -0.1658
     27 C         139.9994  144.7240  164.5473 C.3     1  UNL1        0.1024
     28 C         138.7639  143.9688  164.9388 C.3     1  UNL1        0.0872
     29 C         138.6649  142.4978  164.6627 C.ar    1  UNL1        0.1411
     30 N         137.9412  142.0108  163.4423 N.ar    1  UNL1       -0.2267
     31 C         137.8423  140.5397  163.1662 C.ar    1  UNL1        0.1314
     32 C         138.4669  139.5557  164.1105 C.ar    1  UNL1        0.1783
     33 F         138.3680  138.0847  163.8344 F       1  UNL1       -0.2009
     34 C         139.1906  140.0427  165.3308 C.ar    1  UNL1        0.1314
     35 N         139.2895  141.5138  165.6069 N.ar    1  UNL1       -0.2267
@<TRIPOS>BOND
     1    11    12    2
     2    12    13   am
     3    13    15    1
     4    15    16    1
     5    16    17   ar
     6    17    18   ar
     7    18    19   ar
     8    19    20    1
     9    19    21   ar
    10    21    23    1
    11    23    24    1
    12    23    25    1
    13    23    26    1
    14    21    22   ar
    15    12     1    1
    16     1     2    1
    17     2     3   ar
    18     3     4   ar
    19     4     5   ar
    20     5     6   ar
    21     6     7   ar
    22     7     8    1
    23     8     9    2
    24     8    10   am
    25    10    27    1
    26    27    28    1
    27    28    29    1
    28    29    30   ar
    29    30    31   ar
    30    31    32   ar
    31    32    33    1
    32    32    34   ar
    33    34    35   ar
    34    22    16   ar
    35    10     1    1
    36    35    29   ar
    37     7     2   ar
    38    13    14    1
@<TRIPOS>MOLECULE
*****
 35 38 0 0 0
SMALL
GASTEIGER

@<TRIPOS>ATOM
      1 C         140.8866  143.5842  162.0380 C.3     1  UNL1        0.1751
      2 C         141.5797  143.7449  160.7175 C.ar    1  UNL1        0.0089
      3 C         142.6521  142.9421  160.0425 C.ar    1  UNL1       -0.0021
      4 C         143.1597  143.3541  158.6925 C.ar    1  UNL1       -0.0003
      5 C         142.5950  144.5687  158.0174 C.ar    1  UNL1        0.0001
      6 C         141.5227  145.3715  158.6924 C.ar    1  UNL1        0.0043
      7 C         141.0150  144.9596  160.0424 C.ar    1  UNL1        0.0516
      8 C         139.9730  145.5495  160.9458 C.2     1  UNL1        0.2493
      9 O         139.1540  146.7745  160.6650 O.2     1  UNL1       -0.2699
     10 N         139.8936  144.6995  162.1791 N.am    1  UNL1       -0.2657
     11 O         141.2972  141.0780  162.5860 O.2     1  UNL1       -0.2729
     12 C         141.1418  142.4987  163.0413 C.2     1  UNL1        0.2451
     13 N         141.2416  142.8339  164.5000 N.am    1  UNL1       -0.2988
     14 H         141.1397  143.7664  164.7989 H       1  UNL1        0.1498
     15 C         141.4968  141.7484  165.5033 C.3     1  UNL1        0.1164
     16 C         141.8428  142.1022  166.9192 C.ar    1  UNL1       -0.0025
     17 C         143.2729  142.0754  167.3711 C.ar    1  UNL1       -0.0003
     18 C         143.6188  142.4292  168.7871 C.ar    1  UNL1        0.0293
     19 C         142.5346  142.8098  169.7514 C.ar    1  UNL1        0.1440
     20 F         142.8806  143.1636  171.1674 F       1  UNL1       -0.2042
     21 C         141.1045  142.8366  169.2996 C.ar    1  UNL1        0.0985
     22 C         140.7586  142.4828  167.8835 C.ar    1  UNL1        0.0035
     23 C         140.0204  143.2172  170.2638 C.3     1  UNL1        0.4207
     24 F         138.9362  143.5978  171.2280 F       1  UNL1       -0.1658
     25 F         139.6069  141.7790  170.3666 F       1  UNL1       -0.1658
     26 F         140.4339  144.6555  170.1609 F       1  UNL1       -0.1658
     27 C         138.9814  144.9251  163.3483 C.3     1  UNL1        0.1024
     28 C         137.7432  144.0931  163.5050 C.3     1  UNL1        0.0872
     29 C         137.8039  142.6100  163.2892 C.ar    1  UNL1        0.1411
     30 N         137.5779  142.0415  161.9195 N.ar    1  UNL1       -0.2267
     31 C         137.6386  140.5583  161.7037 C.ar    1  UNL1        0.1314
     32 C         137.9253  139.6437  162.8576 C.ar    1  UNL1        0.1783
     33 F         137.9860  138.1605  162.6418 F       1  UNL1       -0.2009
     34 C         138.1512  140.2122  164.2271 C.ar    1  UNL1        0.1314
     35 N         138.0905  141.6953  164.4429 N.ar    1  UNL1       -0.2267
@<TRIPOS>BOND
     1    11    12    2
     2    12    13   am
     3    13    15    1
     4    15    16    1
     5    16    17   ar
     6    17    18   ar
     7    18    19   ar
     8    19    20    1
     9    19    21   ar
    10    21    23    1
    11    23    24    1
    12    23    25    1
    13    23    26    1
    14    21    22   ar
    15    12     1    1
    16     1     2    1
    17     2     3   ar
    18     3     4   ar
    19     4     5   ar
    20     5     6   ar
    21     6     7   ar
    22     7     8    1
    23     8     9    2
    24     8    10   am
    25    10    27    1
    26    27    28    1
    27    28    29    1
    28    29    30   ar
    29    30    31   ar
    30    31    32   ar
    31    32    33    1
    32    32    34   ar
    33    34    35   ar
    34    22    16   ar
    35    10     1    1
    36    35    29   ar
    37     7     2   ar
    38    13    14    1
@<TRIPOS>MOLECULE
*****
 35 38 0 0 0
SMALL
GASTEIGER

@<TRIPOS>ATOM
      1 C         140.8470  138.9044  163.2038 C.3     1  UNL1        0.1751
      2 C         141.1710  138.8871  161.7393 C.ar    1  UNL1        0.0089
      3 C         142.4588  139.0769  160.9940 C.ar    1  UNL1       -0.0021
      4 C         142.4761  139.0036  159.4959 C.ar    1  UNL1       -0.0003
      5 C         141.2056  138.7405  158.7432 C.ar    1  UNL1        0.0001
      6 C         139.9178  138.5508  159.4885 C.ar    1  UNL1        0.0043
      7 C         139.9005  138.6241  160.9866 C.ar    1  UNL1        0.0516
      8 C         138.7913  138.4788  161.9859 C.2     1  UNL1        0.2493
      9 O         137.3502  138.2079  161.6702 O.2     1  UNL1       -0.2699
     10 N         139.3762  138.6521  163.3562 N.am    1  UNL1       -0.2657
     11 O         142.4291  137.9650  165.0380 O.2     1  UNL1       -0.2729
     12 C         141.8225  139.1338  164.3200 C.2     1  UNL1        0.2451
     13 N         142.1914  140.5323  164.7182 N.am    1  UNL1       -0.2988
     14 H         141.7932  141.2995  164.2469 H       1  UNL1        0.1498
     15 C         143.1669  140.7617  165.8343 C.3     1  UNL1        0.1164
     16 C         142.6785  140.8571  167.2493 C.ar    1  UNL1       -0.0025
     17 C         142.7049  139.6469  168.1352 C.ar    1  UNL1       -0.0003
     18 C         142.2165  139.7425  169.5502 C.ar    1  UNL1        0.0293
     19 C         141.7016  141.0482  170.0795 C.ar    1  UNL1        0.1440
     20 F         141.2133  141.1437  171.4945 F       1  UNL1       -0.2042
     21 C         141.6752  142.2584  169.1936 C.ar    1  UNL1        0.0985
     22 C         142.1636  142.1629  167.7785 C.ar    1  UNL1        0.0035
     23 C         141.1604  143.5641  169.7228 C.3     1  UNL1        0.4207
     24 F         140.6455  144.8699  170.2520 F       1  UNL1       -0.1658
     25 F         139.9116  143.4021  168.9077 F       1  UNL1       -0.1658
     26 F         142.4092  143.7261  170.5379 F       1  UNL1       -0.1658
     27 C         138.6227  138.5849  164.6515 C.3     1  UNL1        0.1024
     28 C         138.1447  139.8463  165.3074 C.3     1  UNL1        0.0872
     29 C         138.3868  141.1722  164.6491 C.ar    1  UNL1        0.1411
     30 N         139.5259  142.0372  165.1014 N.ar    1  UNL1       -0.2267
     31 C         139.7680  143.3631  164.4431 C.ar    1  UNL1        0.1314
     32 C         138.8711  143.8241  163.3326 C.ar    1  UNL1        0.1783
     33 F         139.1132  145.1500  162.6744 F       1  UNL1       -0.2009
     34 C         137.7321  142.9591  162.8804 C.ar    1  UNL1        0.1314
     35 N         137.4899  141.6332  163.5387 N.ar    1  UNL1       -0.2267
@<TRIPOS>BOND
     1    11    12    2
     2    12    13   am
     3    13    15    1
     4    15    16    1
     5    16    17   ar
     6    17    18   ar
     7    18    19   ar
     8    19    20    1
     9    19    21   ar
    10    21    23    1
    11    23    24    1
    12    23    25    1
    13    23    26    1
    14    21    22   ar
    15    12     1    1
    16     1     2    1
    17     2     3   ar
    18     3     4   ar
    19     4     5   ar
    20     5     6   ar
    21     6     7   ar
    22     7     8    1
    23     8     9    2
    24     8    10   am
    25    10    27    1
    26    27    28    1
    27    28    29    1
    28    29    30   ar
    29    30    31   ar
    30    31    32   ar
    31    32    33    1
    32    32    34   ar
    33    34    35   ar
    34    22    16   ar
    35    10     1    1
    36    35    29   ar
    37     7     2   ar
    38    13    14    1
@<TRIPOS>MOLECULE
*****
 35 38 0 0 0
SMALL
GASTEIGER

@<TRIPOS>ATOM
      1 C         139.2843  141.5043  162.7131 C.3     1  UNL1        0.1751
      2 C         139.1627  141.0574  161.2864 C.ar    1  UNL1        0.0089
      3 C         139.0196  139.6978  160.6692 C.ar    1  UNL1       -0.0021
      4 C         138.9179  139.5574  159.1793 C.ar    1  UNL1       -0.0003
      5 C         138.9593  140.7766  158.3065 C.ar    1  UNL1        0.0001
      6 C         139.1024  142.1362  158.9237 C.ar    1  UNL1        0.0043
      7 C         139.2041  142.2766  160.4136 C.ar    1  UNL1        0.0516
      8 C         139.3512  143.4770  161.3009 C.2     1  UNL1        0.2493
      9 O         139.4343  144.9042  160.8468 O.2     1  UNL1       -0.2699
     10 N         139.4008  142.9997  162.7221 N.am    1  UNL1       -0.2657
     11 O         137.9925  140.1314  164.5009 O.2     1  UNL1       -0.2729
     12 C         139.2886  140.6123  163.9191 C.2     1  UNL1        0.2451
     13 N         140.5892  140.2013  164.5433 N.am    1  UNL1       -0.2988
     14 H         141.4400  140.5169  164.1614 H       1  UNL1        0.1498
     15 C         140.5935  139.3093  165.7493 C.3     1  UNL1        0.1164
     16 C         140.6551  139.9068  167.1237 C.ar    1  UNL1       -0.0025
     17 C         139.4328  139.9156  167.9932 C.ar    1  UNL1       -0.0003
     18 C         139.4944  140.5132  169.3676 C.ar    1  UNL1        0.0293
     19 C         140.7783  141.1020  169.8727 C.ar    1  UNL1        0.1440
     20 F         140.8399  141.6995  171.2471 F       1  UNL1       -0.2042
     21 C         142.0006  141.0932  169.0032 C.ar    1  UNL1        0.0985
     22 C         141.9390  140.4956  167.6287 C.ar    1  UNL1        0.0035
     23 C         143.2845  141.6819  169.5082 C.3     1  UNL1        0.4207
     24 F         144.5684  142.2707  170.0132 F       1  UNL1       -0.1658
     25 F         143.4772  140.4938  170.4034 F       1  UNL1       -0.1658
     26 F         143.0917  142.8700  168.6130 F       1  UNL1       -0.1658
     27 C         139.5421  143.8658  163.9386 C.3     1  UNL1        0.1024
     28 C         140.8217  144.6084  164.1861 C.3     1  UNL1        0.0872
     29 C         142.1393  143.9350  163.9402 C.ar    1  UNL1        0.1411
     30 N         143.0607  144.4555  162.8771 N.ar    1  UNL1       -0.2267
     31 C         144.3783  143.7821  162.6311 C.ar    1  UNL1        0.1314
     32 C         144.7744  142.5881  163.4483 C.ar    1  UNL1        0.1783
     33 F         146.0920  141.9147  163.2023 F       1  UNL1       -0.2009
     34 C         143.8530  142.0677  164.5113 C.ar    1  UNL1        0.1314
     35 N         142.5354  142.7411  164.7572 N.ar    1  UNL1       -0.2267
@<TRIPOS>BOND
     1    11    12    2
     2    12    13   am
     3    13    15    1
     4    15    16    1
     5    16    17   ar
     6    17    18   ar
     7    18    19   ar
     8    19    20    1
     9    19    21   ar
    10    21    23    1
    11    23    24    1
    12    23    25    1
    13    23    26    1
    14    21    22   ar
    15    12     1    1
    16     1     2    1
    17     2     3   ar
    18     3     4   ar
    19     4     5   ar
    20     5     6   ar
    21     6     7   ar
    22     7     8    1
    23     8     9    2
    24     8    10   am
    25    10    27    1
    26    27    28    1
    27    28    29    1
    28    29    30   ar
    29    30    31   ar
    30    31    32   ar
    31    32    33    1
    32    32    34   ar
    33    34    35   ar
    34    22    16   ar
    35    10     1    1
    36    35    29   ar
    37     7     2   ar
    38    13    14    1
@<TRIPOS>MOLECULE
*****
 35 38 0 0 0
SMALL
GASTEIGER

@<TRIPOS>ATOM
      1 C         141.4692  143.0991  162.9067 C.3     1  UNL1        0.1751
      2 C         141.9703  143.3179  161.5099 C.ar    1  UNL1        0.0089
      3 C         143.1329  142.7401  160.7586 C.ar    1  UNL1       -0.0021
      4 C         143.3916  143.1568  159.3411 C.ar    1  UNL1       -0.0003
      5 C         142.4878  144.1515  158.6749 C.ar    1  UNL1        0.0001
      6 C         141.3253  144.7294  159.4262 C.ar    1  UNL1        0.0043
      7 C         141.0666  144.3126  160.8437 C.ar    1  UNL1        0.0516
      8 C         140.0068  144.7084  161.8288 C.2     1  UNL1        0.2493
      9 O         138.8937  145.6832  161.5821 O.2     1  UNL1       -0.2699
     10 N         140.2557  143.9584  163.1037 N.am    1  UNL1       -0.2657
     11 O         143.2997  142.6051  164.6829 O.2     1  UNL1       -0.2729
     12 C         142.0752  142.1818  163.9272 C.2     1  UNL1        0.2451
     13 N         141.4565  140.8411  164.1919 N.am    1  UNL1       -0.2988
     14 H         140.6528  140.5633  163.6959 H       1  UNL1        0.1498
     15 C         142.0625  139.9239  165.2124 C.3     1  UNL1        0.1164
     16 C         141.5630  139.9409  166.6266 C.ar    1  UNL1       -0.0025
     17 C         140.1162  140.2198  166.9077 C.ar    1  UNL1       -0.0003
     18 C         139.6167  140.2368  168.3220 C.ar    1  UNL1        0.0293
     19 C         140.5639  139.9749  169.4553 C.ar    1  UNL1        0.1440
     20 F         140.0643  139.9919  170.8695 F       1  UNL1       -0.2042
     21 C         142.0107  139.6960  169.1742 C.ar    1  UNL1        0.0985
     22 C         142.5102  139.6790  167.7598 C.ar    1  UNL1        0.0035
     23 C         142.9580  139.4341  170.3074 C.3     1  UNL1        0.4207
     24 F         143.9052  139.1722  171.4405 F       1  UNL1       -0.1658
     25 F         142.7559  137.9578  170.1351 F       1  UNL1       -0.1658
     26 F         143.1600  140.9104  170.4796 F       1  UNL1       -0.1658
     27 C         139.4351  144.0515  164.3559 C.3     1  UNL1        0.1024
     28 C         138.2078  143.2035  164.5131 C.3     1  UNL1        0.0872
     29 C         138.0831  141.9163  163.7531 C.ar    1  UNL1        0.1411
     30 N         137.6712  141.9338  162.3108 N.ar    1  UNL1       -0.2267
     31 C         137.5465  140.6466  161.5508 C.ar    1  UNL1        0.1314
     32 C         137.8338  139.3420  162.2330 C.ar    1  UNL1        0.1783
     33 F         137.7092  138.0548  161.4730 F       1  UNL1       -0.2009
     34 C         138.2458  139.3245  163.6752 C.ar    1  UNL1        0.1314
     35 N         138.3704  140.6117  164.4352 N.ar    1  UNL1       -0.2267
@<TRIPOS>BOND
     1    11    12    2
     2    12    13   am
     3    13    15    1
     4    15    16    1
     5    16    17   ar
     6    17    18   ar
     7    18    19   ar
     8    19    20    1
     9    19    21   ar
    10    21    23    1
    11    23    24    1
    12    23    25    1
    13    23    26    1
    14    21    22   ar
    15    12     1    1
    16     1     2    1
    17     2     3   ar
    18     3     4   ar
    19     4     5   ar
    20     5     6   ar
    21     6     7   ar
    22     7     8    1
    23     8     9    2
    24     8    10   am
    25    10    27    1
    26    27    28    1
    27    28    29    1
    28    29    30   ar
    29    30    31   ar
    30    31    32   ar
    31    32    33    1
    32    32    34   ar
    33    34    35   ar
    34    22    16   ar
    35    10     1    1
    36    35    29   ar
    37     7     2   ar
    38    13    14    1
@<TRIPOS>MOLECULE
*****
 35 38 0 0 0
SMALL
GASTEIGER

@<TRIPOS>ATOM
      1 C         143.2048  141.5948  162.8887 C.3     1  UNL1        0.1751
      2 C         142.4115  142.8677  162.9105 C.ar    1  UNL1        0.0089
      3 C         141.8888  143.7054  164.0397 C.ar    1  UNL1       -0.0021
      4 C         141.1107  144.9544  163.7491 C.ar    1  UNL1       -0.0003
      5 C         140.8552  145.3657  162.3294 C.ar    1  UNL1        0.0001
      6 C         141.3779  144.5280  161.2003 C.ar    1  UNL1        0.0043
      7 C         142.1561  143.2791  161.4908 C.ar    1  UNL1        0.0516
      8 C         142.7914  142.2603  160.5916 C.2     1  UNL1        0.2493
      9 O         142.7805  142.2793  159.0918 O.2     1  UNL1       -0.2699
     10 N         143.4396  141.2194  161.4556 N.am    1  UNL1       -0.2657
     11 O         145.1482  140.6203  164.3112 O.2     1  UNL1       -0.2729
     12 C         143.6798  140.8314  164.0893 C.2     1  UNL1        0.2451
     13 N         142.6864  140.2790  165.0682 N.am    1  UNL1       -0.2988
     14 H         141.7226  140.4175  164.9226 H       1  UNL1        0.1498
     15 C         143.1614  139.5155  166.2688 C.3     1  UNL1        0.1164
     16 C         142.6911  139.9043  167.6390 C.ar    1  UNL1       -0.0025
     17 C         142.7320  138.9057  168.7575 C.ar    1  UNL1       -0.0003
     18 C         142.2617  139.2945  170.1277 C.ar    1  UNL1        0.0293
     19 C         141.7504  140.6821  170.3796 C.ar    1  UNL1        0.1440
     20 F         141.2801  141.0709  171.7498 F       1  UNL1       -0.2042
     21 C         141.7095  141.6807  169.2611 C.ar    1  UNL1        0.0985
     22 C         142.1799  141.2918  167.8908 C.ar    1  UNL1        0.0035
     23 C         141.1983  143.0683  169.5128 C.3     1  UNL1        0.4207
     24 F         140.6870  144.4558  169.7645 F       1  UNL1       -0.1658
     25 F         142.4765  143.4112  170.2189 F       1  UNL1       -0.1658
     26 F         139.9200  142.7253  168.8067 F       1  UNL1       -0.1658
     27 C         144.1907  140.0147  160.9714 C.3     1  UNL1        0.1024
     28 C         143.4460  138.7689  160.5926 C.3     1  UNL1        0.0872
     29 C         142.2080  138.3775  161.3438 C.ar    1  UNL1        0.1411
     30 N         140.8643  138.4933  160.6872 N.ar    1  UNL1       -0.2267
     31 C         139.6263  138.1019  161.4383 C.ar    1  UNL1        0.1314
     32 C         139.7321  137.5946  162.8460 C.ar    1  UNL1        0.1783
     33 F         138.4941  137.2032  163.5972 F       1  UNL1       -0.2009
     34 C         141.0758  137.4788  163.5025 C.ar    1  UNL1        0.1314
     35 N         142.3137  137.8702  162.7514 N.ar    1  UNL1       -0.2267
@<TRIPOS>BOND
     1    11    12    2
     2    12    13   am
     3    13    15    1
     4    15    16    1
     5    16    17   ar
     6    17    18   ar
     7    18    19   ar
     8    19    20    1
     9    19    21   ar
    10    21    23    1
    11    23    24    1
    12    23    25    1
    13    23    26    1
    14    21    22   ar
    15    12     1    1
    16     1     2    1
    17     2     3   ar
    18     3     4   ar
    19     4     5   ar
    20     5     6   ar
    21     6     7   ar
    22     7     8    1
    23     8     9    2
    24     8    10   am
    25    10    27    1
    26    27    28    1
    27    28    29    1
    28    29    30   ar
    29    30    31   ar
    30    31    32   ar
    31    32    33    1
    32    32    34   ar
    33    34    35   ar
    34    22    16   ar
    35    10     1    1
    36    35    29   ar
    37     7     2   ar
    38    13    14    1
@<TRIPOS>MOLECULE
*****
 35 38 0 0 0
SMALL
GASTEIGER

@<TRIPOS>ATOM
      1 C         142.2975  140.3204  163.0699 C.3     1  UNL1        0.1751
      2 C         141.0916  139.4328  163.1593 C.ar    1  UNL1        0.0089
      3 C         140.3371  138.8797  164.3318 C.ar    1  UNL1       -0.0021
      4 C         139.1430  138.0000  164.1079 C.ar    1  UNL1       -0.0003
      5 C         138.7034  137.6734  162.7115 C.ar    1  UNL1        0.0001
      6 C         139.4579  138.2264  161.5390 C.ar    1  UNL1        0.0043
      7 C         140.6520  139.1061  161.7629 C.ar    1  UNL1        0.0516
      8 C         141.5862  139.7919  160.8105 C.2     1  UNL1        0.2493
      9 O         141.5157  139.7368  159.3131 O.2     1  UNL1       -0.2699
     10 N         142.6031  140.5424  161.6182 N.am    1  UNL1       -0.2657
     11 O         144.4525  140.4015  164.5187 O.2     1  UNL1       -0.2729
     12 C         143.0632  140.8868  164.2288 C.2     1  UNL1        0.2451
     13 N         142.4395  141.9385  165.0977 N.am    1  UNL1       -0.2988
     14 H         141.5276  142.2571  164.9074 H       1  UNL1        0.1498
     15 C         143.2052  142.5048  166.2566 C.3     1  UNL1        0.1164
     16 C         142.7621  142.2175  167.6605 C.ar    1  UNL1       -0.0025
     17 C         143.6933  142.4735  168.8082 C.ar    1  UNL1       -0.0003
     18 C         143.2501  142.1861  170.2121 C.ar    1  UNL1        0.0293
     19 C         141.8756  141.6427  170.4684 C.ar    1  UNL1        0.1440
     20 F         141.4325  141.3553  171.8723 F       1  UNL1       -0.2042
     21 C         140.9444  141.3866  169.3206 C.ar    1  UNL1        0.0985
     22 C         141.3877  141.6740  167.9167 C.ar    1  UNL1        0.0035
     23 C         139.5700  140.8432  169.5768 C.3     1  UNL1        0.4207
     24 F         138.1955  140.2998  169.8330 F       1  UNL1       -0.1658
     25 F         139.1964  142.1171  170.2751 F       1  UNL1       -0.1658
     26 F         139.9436  139.5693  168.8784 F       1  UNL1       -0.1658
     27 C         143.7282  141.3696  161.0705 C.3     1  UNL1        0.1024
     28 C         143.9151  142.7833  161.5356 C.3     1  UNL1        0.0872
     29 C         142.7526  143.7313  161.5400 C.ar    1  UNL1        0.1411
     30 N         142.1858  144.2290  160.2434 N.ar    1  UNL1       -0.2267
     31 C         141.0234  145.1770  160.2478 C.ar    1  UNL1        0.1314
     32 C         140.4277  145.6273  161.5489 C.ar    1  UNL1        0.1783
     33 F         139.2653  146.5753  161.5533 F       1  UNL1       -0.2009
     34 C         140.9945  145.1296  162.8454 C.ar    1  UNL1        0.1314
     35 N         142.1570  144.1816  162.8409 N.ar    1  UNL1       -0.2267
@<TRIPOS>BOND
     1    11    12    2
     2    12    13   am
     3    13    15    1
     4    15    16    1
     5    16    17   ar
     6    17    18   ar
     7    18    19   ar
     8    19    20    1
     9    19    21   ar
    10    21    23    1
    11    23    24    1
    12    23    25    1
    13    23    26    1
    14    21    22   ar
    15    12     1    1
    16     1     2    1
    17     2     3   ar
    18     3     4   ar
    19     4     5   ar
    20     5     6   ar
    21     6     7   ar
    22     7     8    1
    23     8     9    2
    24     8    10   am
    25    10    27    1
    26    27    28    1
    27    28    29    1
    28    29    30   ar
    29    30    31   ar
    30    31    32   ar
    31    32    33    1
    32    32    34   ar
    33    34    35   ar
    34    22    16   ar
    35    10     1    1
    36    35    29   ar
    37     7     2   ar
    38    13    14    1
@<TRIPOS>MOLECULE
*****
 35 38 0 0 0
SMALL
GASTEIGER

@<TRIPOS>ATOM
      1 C         139.0249  142.3792  162.0646 C.3     1  UNL1        0.1751
      2 C         139.3984  143.1239  160.8172 C.ar    1  UNL1        0.0089
      3 C         140.1310  144.4147  160.6003 C.ar    1  UNL1       -0.0021
      4 C         140.3613  144.9213  159.2074 C.ar    1  UNL1       -0.0003
      5 C         139.8591  144.1371  158.0314 C.ar    1  UNL1        0.0001
      6 C         139.1265  142.8463  158.2484 C.ar    1  UNL1        0.0043
      7 C         138.8962  142.3397  159.6413 C.ar    1  UNL1        0.0516
      8 C         138.2123  141.1104  160.1619 C.2     1  UNL1        0.2493
      9 O         137.5628  140.0439  159.3307 O.2     1  UNL1       -0.2699
     10 N         138.2918  141.1348  161.6596 N.am    1  UNL1       -0.2657
     11 O         138.2259  143.2759  164.3684 O.2     1  UNL1       -0.2729
     12 C         139.3307  142.8043  163.4702 C.2     1  UNL1        0.2451
     13 N         140.7416  142.7578  163.9776 N.am    1  UNL1       -0.2988
     14 H         141.4668  142.4483  163.3881 H       1  UNL1        0.1498
     15 C         141.0475  143.1829  165.3833 C.3     1  UNL1        0.1164
     16 C         141.2231  142.1509  166.4575 C.ar    1  UNL1       -0.0025
     17 C         142.5618  141.5080  166.6683 C.ar    1  UNL1       -0.0003
     18 C         142.7374  140.4759  167.7425 C.ar    1  UNL1        0.0293
     19 C         141.5742  140.0867  168.6060 C.ar    1  UNL1        0.1440
     20 F         141.7498  139.0546  169.6802 F       1  UNL1       -0.2042
     21 C         140.2355  140.7295  168.3952 C.ar    1  UNL1        0.0985
     22 C         140.0599  141.7617  167.3209 C.ar    1  UNL1        0.0035
     23 C         139.0722  140.3403  169.2586 C.3     1  UNL1        0.4207
     24 F         137.9090  139.9511  170.1220 F       1  UNL1       -0.1658
     25 F         138.5852  139.4134  168.1845 F       1  UNL1       -0.1658
     26 F         139.5594  141.2673  170.3326 F       1  UNL1       -0.1658
     27 C         137.7358  140.0970  162.5891 C.3     1  UNL1        0.1024
     28 C         138.4217  138.7703  162.7284 C.3     1  UNL1        0.0872
     29 C         139.9197  138.6948  162.7096 C.ar    1  UNL1        0.1411
     30 N         140.7231  139.4893  163.6962 N.ar    1  UNL1       -0.2267
     31 C         142.2211  139.4137  163.6773 C.ar    1  UNL1        0.1314
     32 C         142.9156  138.5437  162.6719 C.ar    1  UNL1        0.1783
     33 F         144.4136  138.4681  162.6531 F       1  UNL1       -0.2009
     34 C         142.1122  137.7492  161.6854 C.ar    1  UNL1        0.1314
     35 N         140.6142  137.8248  161.7042 N.ar    1  UNL1       -0.2267
@<TRIPOS>BOND
     1    11    12    2
     2    12    13   am
     3    13    15    1
     4    15    16    1
     5    16    17   ar
     6    17    18   ar
     7    18    19   ar
     8    19    20    1
     9    19    21   ar
    10    21    23    1
    11    23    24    1
    12    23    25    1
    13    23    26    1
    14    21    22   ar
    15    12     1    1
    16     1     2    1
    17     2     3   ar
    18     3     4   ar
    19     4     5   ar
    20     5     6   ar
    21     6     7   ar
    22     7     8    1
    23     8     9    2
    24     8    10   am
    25    10    27    1
    26    27    28    1
    27    28    29    1
    28    29    30   ar
    29    30    31   ar
    30    31    32   ar
    31    32    33    1
    32    32    34   ar
    33    34    35   ar
    34    22    16   ar
    35    10     1    1
    36    35    29   ar
    37     7     2   ar
    38    13    14    1
@<TRIPOS>MOLECULE
*****
 35 38 0 0 0
SMALL
GASTEIGER

@<TRIPOS>ATOM
      1 C         141.6177  143.4974  161.4849 C.3     1  UNL1        0.1751
      2 C         141.8505  143.9290  160.0673 C.ar    1  UNL1        0.0089
      3 C         142.7312  143.3818  158.9833 C.ar    1  UNL1       -0.0021
      4 C         142.7560  144.0377  157.6346 C.ar    1  UNL1       -0.0003
      5 C         141.9003  145.2409  157.3699 C.ar    1  UNL1        0.0001
      6 C         141.0196  145.7881  158.4538 C.ar    1  UNL1        0.0043
      7 C         140.9947  145.1321  159.8025 C.ar    1  UNL1        0.0516
      8 C         140.2330  145.4441  161.0565 C.2     1  UNL1        0.2493
      9 O         139.2576  146.5690  161.2387 O.2     1  UNL1       -0.2699
     10 N         140.6180  144.4339  162.0963 N.am    1  UNL1       -0.2657
     11 O         141.7088  140.9530  162.0022 O.2     1  UNL1       -0.2729
     12 C         142.2700  142.3338  162.1707 C.2     1  UNL1        0.2451
     13 N         143.4838  142.5509  163.0250 N.am    1  UNL1       -0.2988
     14 H         143.8522  143.4571  163.1356 H       1  UNL1        0.1498
     15 C         144.1361  141.3872  163.7108 C.3     1  UNL1        0.1164
     16 C         143.6026  140.8951  165.0235 C.ar    1  UNL1       -0.0025
     17 C         143.4439  139.4230  165.2641 C.ar    1  UNL1       -0.0003
     18 C         142.9103  138.9309  166.5768 C.ar    1  UNL1        0.0293
     19 C         142.5354  139.9108  167.6489 C.ar    1  UNL1        0.1440
     20 F         142.0018  139.4186  168.9615 F       1  UNL1       -0.2042
     21 C         142.6941  141.3828  167.4082 C.ar    1  UNL1        0.0985
     22 C         143.2277  141.8750  166.0955 C.ar    1  UNL1        0.0035
     23 C         142.3192  142.3628  168.4802 C.3     1  UNL1        0.4207
     24 F         141.9443  143.3427  169.5523 F       1  UNL1       -0.1658
     25 F         143.7673  142.5296  168.8341 F       1  UNL1       -0.1658
     26 F         140.8711  142.1959  168.1263 F       1  UNL1       -0.1658
     27 C         140.0952  144.3711  163.5008 C.3     1  UNL1        0.1024
     28 C         138.7599  143.7460  163.7768 C.3     1  UNL1        0.0872
     29 C         138.4793  142.3446  163.3216 C.ar    1  UNL1        0.1411
     30 N         137.9904  142.0930  161.9259 N.ar    1  UNL1       -0.2267
     31 C         137.7098  140.6915  161.4708 C.ar    1  UNL1        0.1314
     32 C         137.9182  139.5416  162.4112 C.ar    1  UNL1        0.1783
     33 F         137.6376  138.1402  161.9561 F       1  UNL1       -0.2009
     34 C         138.4071  139.7933  163.8068 C.ar    1  UNL1        0.1314
     35 N         138.6876  141.1947  164.2620 N.ar    1  UNL1       -0.2267
@<TRIPOS>BOND
     1    11    12    2
     2    12    13   am
     3    13    15    1
     4    15    16    1
     5    16    17   ar
     6    17    18   ar
     7    18    19   ar
     8    19    20    1
     9    19    21   ar
    10    21    23    1
    11    23    24    1
    12    23    25    1
    13    23    26    1
    14    21    22   ar
    15    12     1    1
    16     1     2    1
    17     2     3   ar
    18     3     4   ar
    19     4     5   ar
    20     5     6   ar
    21     6     7   ar
    22     7     8    1
    23     8     9    2
    24     8    10   am
    25    10    27    1
    26    27    28    1
    27    28    29    1
    28    29    30   ar
    29    30    31   ar
    30    31    32   ar
    31    32    33    1
    32    32    34   ar
    33    34    35   ar
    34    22    16   ar
    35    10     1    1
    36    35    29   ar
    37     7     2   ar
    38    13    14    1
