@<TRIPOS>MOLECULE
*****
 33 36 0 0 0
SMALL
GASTEIGER

@<TRIPOS>ATOM
      1 C         143.2040  137.1516  159.7420 C.3     1  UNL1        0.1747
      2 C         143.0333  137.7860  161.0905 C.2     1  UNL1        0.2425
      3 O         144.0094  138.8236  161.5602 O.2     1  UNL1       -0.2733
      4 N         141.8866  137.3827  161.9692 N.am    1  UNL1       -0.3018
      5 H         141.2459  136.7017  161.6609 H       1  UNL1        0.1495
      6 C         141.7159  138.0170  163.3178 C.3     1  UNL1        0.1035
      7 C         141.5546  137.5044  164.7183 C.3     1  UNL1        0.0933
      8 N         141.4746  138.9140  165.2249 N.3     1  UNL1       -0.2711
      9 C         141.6359  139.4265  163.8245 C.3     1  UNL1        0.0933
     10 C         141.3040  139.5483  166.5735 C.3     1  UNL1        0.0577
     11 C         139.9335  139.9107  167.0639 C.3     1  UNL1        0.0170
     12 C         139.7629  140.5450  168.4123 C.3     1  UNL1        0.0165
     13 C         140.9627  140.8170  169.2705 C.3     1  UNL1        0.0915
     14 C         142.3332  140.4547  168.7801 C.3     1  UNL1        0.0165
     15 C         142.5038  139.8203  167.4316 C.3     1  UNL1        0.0170
     16 C         140.7920  141.4513  170.6190 C.1     1  UNL1        0.0721
     17 N         140.6213  142.0858  171.9674 N.1     1  UNL1       -0.1959
     18 N         142.9590  137.9548  158.4989 N.pl3   1  UNL1       -0.3093
     19 H         143.3462  138.8556  158.4106 H       1  UNL1        0.1487
     20 C         139.1953  137.3598  154.8436 C.3     1  UNL1        0.1537
     21 N         140.3942  137.1118  155.7103 N.ar    1  UNL1       -0.2476
     22 N         140.9129  138.0261  156.7804 N.ar    1  UNL1       -0.1544
     23 C         142.1242  137.3853  157.3904 C.ar    1  UNL1        0.1500
     24 C         142.3541  136.0750  156.6974 C.ar    1  UNL1        0.0503
     25 C         143.3990  135.0140  156.8777 C.ar    1  UNL1        0.0082
     26 C         143.3746  133.7839  156.0196 C.ar    1  UNL1        0.0716
     27 C         142.3054  133.6149  154.9812 C.ar    1  UNL1        0.0054
     28 C         141.2606  134.6759  154.8009 C.ar    1  UNL1        0.0188
     29 C         141.2849  135.9060  155.6590 C.ar    1  UNL1        0.0807
     30 C         144.4194  132.7228  156.1999 C.3     1  UNL1        0.4186
     31 F         145.4642  131.6618  156.3802 F       1  UNL1       -0.1659
     32 F         144.8058  133.3272  157.5172 F       1  UNL1       -0.1659
     33 F         144.0330  132.1185  154.8825 F       1  UNL1       -0.1659
@<TRIPOS>BOND
     1    20    21    1
     2    21    22   ar
     3    22    23   ar
     4    23    18    1
     5    18     1    1
     6     1     2    1
     7     2     3    2
     8     2     4   am
     9     4     6    1
    10     6     7    1
    11     7     8    1
    12    10     8    1
    13    10    11    1
    14    11    12    1
    15    12    13    1
    16    13    16    1
    17    16    17    3
    18    13    14    1
    19    14    15    1
    20     8     9    1
    21    23    24   ar
    22    24    25   ar
    23    25    26   ar
    24    26    30    1
    25    30    31    1
    26    30    32    1
    27    30    33    1
    28    26    27   ar
    29    27    28   ar
    30    28    29   ar
    31    29    21   ar
    32     9     6    1
    33    29    24   ar
    34    15    10    1
    35    18    19    1
    36     4     5    1
@<TRIPOS>MOLECULE
*****
 33 36 0 0 0
SMALL
GASTEIGER

@<TRIPOS>ATOM
      1 C         142.5559  138.0648  158.7894 C.3     1  UNL1        0.1747
      2 C         142.2729  138.5090  160.1939 C.2     1  UNL1        0.2425
      3 O         141.5668  139.8090  160.4414 O.2     1  UNL1       -0.2733
      4 N         142.6959  137.6531  161.3508 N.am    1  UNL1       -0.3018
      5 H         143.1594  136.7998  161.1883 H       1  UNL1        0.1495
      6 C         142.4129  138.0973  162.7552 C.3     1  UNL1        0.1035
      7 C         142.9247  139.1909  163.6453 C.3     1  UNL1        0.0933
      8 N         142.0126  138.7255  164.7415 N.3     1  UNL1       -0.2711
      9 C         141.5009  137.6320  163.8514 C.3     1  UNL1        0.0933
     10 C         141.7296  139.1697  166.1460 C.3     1  UNL1        0.0577
     11 C         142.8139  139.1201  167.1812 C.3     1  UNL1        0.0170
     12 C         142.5309  139.5643  168.5856 C.3     1  UNL1        0.0165
     13 C         141.1635  140.0581  168.9550 C.3     1  UNL1        0.0915
     14 C         140.0791  140.1077  167.9197 C.3     1  UNL1        0.0165
     15 C         140.3622  139.6635  166.5152 C.3     1  UNL1        0.0170
     16 C         140.8805  140.5022  170.3594 C.1     1  UNL1        0.0721
     17 N         140.5977  140.9464  171.7640 N.1     1  UNL1       -0.1959
     18 N         143.1420  136.7074  158.5358 N.pl3   1  UNL1       -0.3093
     19 H         143.6376  136.2441  159.2492 H       1  UNL1        0.1487
     20 C         141.9530  135.9126  153.4529 C.3     1  UNL1        0.1537
     21 N         142.4263  135.6907  154.8589 N.ar    1  UNL1       -0.2476
     22 N         142.4102  136.7039  155.9649 N.ar    1  UNL1       -0.1544
     23 C         142.9728  136.0560  157.1952 C.ar    1  UNL1        0.1500
     24 C         143.3366  134.6424  156.8497 C.ar    1  UNL1        0.0503
     25 C         143.9317  133.5317  157.6633 C.ar    1  UNL1        0.0082
     26 C         144.1891  132.1952  157.0330 C.ar    1  UNL1        0.0716
     27 C         143.8514  131.9693  155.5890 C.ar    1  UNL1        0.0054
     28 C         143.2562  133.0801  154.7754 C.ar    1  UNL1        0.0188
     29 C         142.9988  134.4166  155.4057 C.ar    1  UNL1        0.0807
     30 C         144.7843  131.0843  157.8466 C.3     1  UNL1        0.4186
     31 F         145.3795  129.9736  158.6602 F       1  UNL1       -0.1659
     32 F         145.8970  131.9944  158.2750 F       1  UNL1       -0.1659
     33 F         143.6716  130.1742  157.4181 F       1  UNL1       -0.1659
@<TRIPOS>BOND
     1    20    21    1
     2    21    22   ar
     3    22    23   ar
     4    23    18    1
     5    18     1    1
     6     1     2    1
     7     2     3    2
     8     2     4   am
     9     4     6    1
    10     6     7    1
    11     7     8    1
    12    10     8    1
    13    10    11    1
    14    11    12    1
    15    12    13    1
    16    13    16    1
    17    16    17    3
    18    13    14    1
    19    14    15    1
    20     8     9    1
    21    23    24   ar
    22    24    25   ar
    23    25    26   ar
    24    26    30    1
    25    30    31    1
    26    30    32    1
    27    30    33    1
    28    26    27   ar
    29    27    28   ar
    30    28    29   ar
    31    29    21   ar
    32     9     6    1
    33    29    24   ar
    34    15    10    1
    35    18    19    1
    36     4     5    1
@<TRIPOS>MOLECULE
*****
 33 36 0 0 0
SMALL
GASTEIGER

@<TRIPOS>ATOM
      1 C         138.4324  144.8630  162.8538 C.3     1  UNL1        0.1747
      2 C         139.6104  144.5318  161.9863 C.2     1  UNL1        0.2425
      3 O         140.9982  144.5872  162.5528 O.2     1  UNL1       -0.2733
      4 N         139.4006  144.1451  160.5523 N.am    1  UNL1       -0.3018
      5 H         138.4897  144.1088  160.1805 H       1  UNL1        0.1495
      6 C         140.5786  143.8139  159.6848 C.3     1  UNL1        0.1035
      7 C         141.2518  142.5461  159.2491 C.3     1  UNL1        0.0933
      8 N         142.2445  143.3453  158.4580 N.3     1  UNL1       -0.2711
      9 C         141.5713  144.6129  158.8937 C.3     1  UNL1        0.0933
     10 C         143.4225  143.0140  157.5904 C.3     1  UNL1        0.0577
     11 C         143.2910  143.0615  156.0970 C.3     1  UNL1        0.0170
     12 C         144.4690  142.7303  155.2295 C.3     1  UNL1        0.0165
     13 C         145.7785  142.3515  155.8554 C.3     1  UNL1        0.0915
     14 C         145.9100  142.3040  157.3489 C.3     1  UNL1        0.0165
     15 C         144.7320  142.6353  158.2164 C.3     1  UNL1        0.0170
     16 C         146.9564  142.0203  154.9878 C.1     1  UNL1        0.0721
     17 N         148.1344  141.6891  154.1202 N.1     1  UNL1       -0.1959
     18 N         137.7922  143.7943  163.6894 N.pl3   1  UNL1       -0.3093
     19 H         137.3182  144.0351  164.5180 H       1  UNL1        0.1487
     20 C         137.5054  139.3953  160.7831 C.3     1  UNL1        0.1537
     21 N         137.7423  140.3367  161.9266 N.ar    1  UNL1       -0.2476
     22 N         137.5049  141.8177  161.9130 N.ar    1  UNL1       -0.1544
     23 C         137.8742  142.3587  163.2624 C.ar    1  UNL1        0.1500
     24 C         138.3398  141.2120  164.1100 C.ar    1  UNL1        0.0503
     25 C         138.8274  141.1444  165.5269 C.ar    1  UNL1        0.0082
     26 C         139.2336  139.8270  166.1181 C.ar    1  UNL1        0.0716
     27 C         139.1521  138.5774  165.2925 C.ar    1  UNL1        0.0054
     28 C         138.6645  138.6450  163.8756 C.ar    1  UNL1        0.0188
     29 C         138.2583  139.9623  163.2844 C.ar    1  UNL1        0.0807
     30 C         139.7213  139.7593  167.5351 C.3     1  UNL1        0.4186
     31 F         140.2090  139.6917  168.9519 F       1  UNL1       -0.1659
     32 F         141.0927  140.1646  167.0824 F       1  UNL1       -0.1659
     33 F         138.3499  139.3540  167.9878 F       1  UNL1       -0.1659
@<TRIPOS>BOND
     1    20    21    1
     2    21    22   ar
     3    22    23   ar
     4    23    18    1
     5    18     1    1
     6     1     2    1
     7     2     3    2
     8     2     4   am
     9     4     6    1
    10     6     7    1
    11     7     8    1
    12    10     8    1
    13    10    11    1
    14    11    12    1
    15    12    13    1
    16    13    16    1
    17    16    17    3
    18    13    14    1
    19    14    15    1
    20     8     9    1
    21    23    24   ar
    22    24    25   ar
    23    25    26   ar
    24    26    30    1
    25    30    31    1
    26    30    32    1
    27    30    33    1
    28    26    27   ar
    29    27    28   ar
    30    28    29   ar
    31    29    21   ar
    32     9     6    1
    33    29    24   ar
    34    15    10    1
    35    18    19    1
    36     4     5    1
@<TRIPOS>MOLECULE
*****
 33 36 0 0 0
SMALL
GASTEIGER

@<TRIPOS>ATOM
      1 C         144.6921  140.2397  164.4332 C.3     1  UNL1        0.1747
      2 C         144.3219  141.0535  163.2288 C.2     1  UNL1        0.2425
      3 O         145.3493  141.3439  162.1752 O.2     1  UNL1       -0.2733
      4 N         142.9243  141.5768  163.0780 N.am    1  UNL1       -0.3018
      5 H         142.2500  141.3862  163.7696 H       1  UNL1        0.1495
      6 C         142.5541  142.3907  161.8736 C.3     1  UNL1        0.1035
      7 C         141.7940  142.1263  160.6077 C.3     1  UNL1        0.0933
      8 N         142.0305  143.5415  160.1702 N.3     1  UNL1       -0.2711
      9 C         142.7906  143.8058  161.4361 C.3     1  UNL1        0.0933
     10 C         141.6604  144.3553  158.9658 C.3     1  UNL1        0.0577
     11 C         142.5245  144.3170  157.7403 C.3     1  UNL1        0.0170
     12 C         142.1543  145.1308  156.5359 C.3     1  UNL1        0.0165
     13 C         140.9200  145.9830  156.5569 C.3     1  UNL1        0.0915
     14 C         140.0559  146.0212  157.7824 C.3     1  UNL1        0.0165
     15 C         140.4261  145.2074  158.9868 C.3     1  UNL1        0.0170
     16 C         140.5499  146.7967  155.3524 C.1     1  UNL1        0.0721
     17 N         140.1799  147.6105  154.1479 N.1     1  UNL1       -0.1959
     18 N         143.8986  139.0161  164.7844 N.pl3   1  UNL1       -0.3093
     19 H         144.3518  138.1482  164.8872 H       1  UNL1        0.1487
     20 C         138.7002  139.0013  163.8584 C.3     1  UNL1        0.1537
     21 N         140.0252  139.1081  164.5535 N.ar    1  UNL1       -0.2476
     22 N         141.3712  138.9159  163.9200 N.ar    1  UNL1       -0.1544
     23 C         142.4146  139.1149  164.9791 C.ar    1  UNL1        0.1500
     24 C         141.7134  139.4302  166.2671 C.ar    1  UNL1        0.0503
     25 C         142.2288  139.7206  167.6455 C.ar    1  UNL1        0.0082
     26 C         141.2675  140.0068  168.7608 C.ar    1  UNL1        0.0716
     27 C         139.7908  140.0026  168.4977 C.ar    1  UNL1        0.0054
     28 C         139.2753  139.7122  167.1194 C.ar    1  UNL1        0.0188
     29 C         140.2367  139.4260  166.0041 C.ar    1  UNL1        0.0807
     30 C         141.7829  140.2972  170.1393 C.3     1  UNL1        0.4186
     31 F         142.2983  140.5875  171.5177 F       1  UNL1       -0.1659
     32 F         140.5420  139.6961  170.7298 F       1  UNL1       -0.1659
     33 F         143.0239  140.8982  169.5487 F       1  UNL1       -0.1659
@<TRIPOS>BOND
     1    20    21    1
     2    21    22   ar
     3    22    23   ar
     4    23    18    1
     5    18     1    1
     6     1     2    1
     7     2     3    2
     8     2     4   am
     9     4     6    1
    10     6     7    1
    11     7     8    1
    12    10     8    1
    13    10    11    1
    14    11    12    1
    15    12    13    1
    16    13    16    1
    17    16    17    3
    18    13    14    1
    19    14    15    1
    20     8     9    1
    21    23    24   ar
    22    24    25   ar
    23    25    26   ar
    24    26    30    1
    25    30    31    1
    26    30    32    1
    27    30    33    1
    28    26    27   ar
    29    27    28   ar
    30    28    29   ar
    31    29    21   ar
    32     9     6    1
    33    29    24   ar
    34    15    10    1
    35    18    19    1
    36     4     5    1
@<TRIPOS>MOLECULE
*****
 33 36 0 0 0
SMALL
GASTEIGER

@<TRIPOS>ATOM
      1 C         139.1775  139.3030  158.8204 C.3     1  UNL1        0.1747
      2 C         139.4724  139.6857  160.2405 C.2     1  UNL1        0.2425
      3 O         140.7329  140.4287  160.5707 O.2     1  UNL1       -0.2733
      4 N         138.5068  139.3252  161.3302 N.am    1  UNL1       -0.3018
      5 H         137.6795  138.8376  161.1135 H       1  UNL1        0.1495
      6 C         138.8017  139.7079  162.7503 C.3     1  UNL1        0.1035
      7 C         139.8995  139.4009  163.7254 C.3     1  UNL1        0.0933
      8 N         139.2189  140.2490  164.7586 N.3     1  UNL1       -0.2711
      9 C         138.1211  140.5559  163.7836 C.3     1  UNL1        0.0933
     10 C         139.5138  140.6316  166.1787 C.3     1  UNL1        0.0577
     11 C         139.1480  139.7017  167.2974 C.3     1  UNL1        0.0170
     12 C         139.4429  140.0843  168.7174 C.3     1  UNL1        0.0165
     13 C         140.1036  141.3969  169.0189 C.3     1  UNL1        0.0915
     14 C         140.4693  142.3268  167.9002 C.3     1  UNL1        0.0165
     15 C         140.1744  141.9441  166.4801 C.3     1  UNL1        0.0170
     16 C         140.3985  141.7794  170.4389 C.1     1  UNL1        0.0721
     17 N         140.6932  142.1620  171.8591 N.1     1  UNL1       -0.1959
     18 N         139.9989  138.2468  158.1422 N.pl3   1  UNL1       -0.3093
     19 H         140.7138  137.7856  158.6375 H       1  UNL1        0.1487
     20 C         137.8823  138.1468  153.3058 C.3     1  UNL1        0.1537
     21 N         138.7580  137.8474  154.4862 N.ar    1  UNL1       -0.2476
     22 N         138.6664  138.4914  155.8379 N.ar    1  UNL1       -0.1544
     23 C         139.7309  137.8934  156.7092 C.ar    1  UNL1        0.1500
     24 C         140.4804  136.8799  155.8961 C.ar    1  UNL1        0.0503
     25 C         141.6327  135.9792  156.2293 C.ar    1  UNL1        0.0082
     26 C         142.1837  135.0502  155.1886 C.ar    1  UNL1        0.0716
     27 C         141.5824  135.0218  153.8146 C.ar    1  UNL1        0.0054
     28 C         140.4301  135.9224  153.4815 C.ar    1  UNL1        0.0188
     29 C         139.8791  136.8515  154.5222 C.ar    1  UNL1        0.0807
     30 C         143.3360  134.1495  155.5217 C.3     1  UNL1        0.4186
     31 F         144.4882  133.2488  155.8548 F       1  UNL1       -0.1659
     32 F         142.3974  132.9832  155.6148 F       1  UNL1       -0.1659
     33 F         144.2746  135.3158  155.4286 F       1  UNL1       -0.1659
@<TRIPOS>BOND
     1    20    21    1
     2    21    22   ar
     3    22    23   ar
     4    23    18    1
     5    18     1    1
     6     1     2    1
     7     2     3    2
     8     2     4   am
     9     4     6    1
    10     6     7    1
    11     7     8    1
    12    10     8    1
    13    10    11    1
    14    11    12    1
    15    12    13    1
    16    13    16    1
    17    16    17    3
    18    13    14    1
    19    14    15    1
    20     8     9    1
    21    23    24   ar
    22    24    25   ar
    23    25    26   ar
    24    26    30    1
    25    30    31    1
    26    30    32    1
    27    30    33    1
    28    26    27   ar
    29    27    28   ar
    30    28    29   ar
    31    29    21   ar
    32     9     6    1
    33    29    24   ar
    34    15    10    1
    35    18    19    1
    36     4     5    1
@<TRIPOS>MOLECULE
*****
 33 36 0 0 0
SMALL
GASTEIGER

@<TRIPOS>ATOM
      1 C         139.0747  140.5394  158.6664 C.3     1  UNL1        0.1747
      2 C         139.1857  140.8645  160.1265 C.2     1  UNL1        0.2425
      3 O         138.9555  142.2684  160.6019 O.2     1  UNL1       -0.2733
      4 N         139.5269  139.7857  161.1112 N.am    1  UNL1       -0.3018
      5 H         139.6779  138.8642  160.7992 H       1  UNL1        0.1495
      6 C         139.6379  140.1108  162.5713 C.3     1  UNL1        0.1035
      7 C         140.7508  140.1071  163.5772 C.3     1  UNL1        0.0933
      8 N         139.7950  140.5706  164.6363 N.3     1  UNL1       -0.2711
      9 C         138.6822  140.5743  163.6304 C.3     1  UNL1        0.0933
     10 C         139.9060  140.8957  166.0964 C.3     1  UNL1        0.0577
     11 C         140.4249  142.2349  166.5292 C.3     1  UNL1        0.0170
     12 C         140.5359  142.5600  167.9893 C.3     1  UNL1        0.0165
     13 C         140.1281  141.5460  169.0167 C.3     1  UNL1        0.0915
     14 C         139.6092  140.2068  168.5838 C.3     1  UNL1        0.0165
     15 C         139.4982  139.8817  167.1237 C.3     1  UNL1        0.0170
     16 C         140.2391  141.8712  170.4767 C.1     1  UNL1        0.0721
     17 N         140.3503  142.1964  171.9368 N.1     1  UNL1       -0.1959
     18 N         137.7247  140.3452  158.0417 N.pl3   1  UNL1       -0.3093
     19 H         137.0088  139.8959  158.5465 H       1  UNL1        0.1487
     20 C         138.4573  142.2256  153.1624 C.3     1  UNL1        0.1537
     21 N         137.8024  141.7000  154.4053 N.ar    1  UNL1       -0.2476
     22 N         138.5034  141.3013  155.6701 N.ar    1  UNL1       -0.1544
     23 C         137.4657  140.8357  156.6480 C.ar    1  UNL1        0.1500
     24 C         136.1234  140.9466  155.9877 C.ar    1  UNL1        0.0503
     25 C         134.7386  140.6302  156.4694 C.ar    1  UNL1        0.0082
     26 C         133.5619  140.8480  155.5651 C.ar    1  UNL1        0.0716
     27 C         133.7700  141.3822  154.1789 C.ar    1  UNL1        0.0054
     28 C         135.1549  141.6986  153.6972 C.ar    1  UNL1        0.0188
     29 C         136.3315  141.4808  154.6015 C.ar    1  UNL1        0.0807
     30 C         132.1770  140.5316  156.0468 C.3     1  UNL1        0.4186
     31 F         130.7922  140.2152  156.5285 F       1  UNL1       -0.1659
     32 F         132.6116  139.1349  156.3787 F       1  UNL1       -0.1659
     33 F         131.7424  141.9284  155.7149 F       1  UNL1       -0.1659
@<TRIPOS>BOND
     1    20    21    1
     2    21    22   ar
     3    22    23   ar
     4    23    18    1
     5    18     1    1
     6     1     2    1
     7     2     3    2
     8     2     4   am
     9     4     6    1
    10     6     7    1
    11     7     8    1
    12    10     8    1
    13    10    11    1
    14    11    12    1
    15    12    13    1
    16    13    16    1
    17    16    17    3
    18    13    14    1
    19    14    15    1
    20     8     9    1
    21    23    24   ar
    22    24    25   ar
    23    25    26   ar
    24    26    30    1
    25    30    31    1
    26    30    32    1
    27    30    33    1
    28    26    27   ar
    29    27    28   ar
    30    28    29   ar
    31    29    21   ar
    32     9     6    1
    33    29    24   ar
    34    15    10    1
    35    18    19    1
    36     4     5    1
@<TRIPOS>MOLECULE
*****
 33 36 0 0 0
SMALL
GASTEIGER

@<TRIPOS>ATOM
      1 C         144.5660  140.1746  156.4543 C.3     1  UNL1        0.1747
      2 C         143.7394  140.0852  157.7028 C.2     1  UNL1        0.2425
      3 O         143.3167  141.3366  158.4136 O.2     1  UNL1       -0.2733
      4 N         143.3356  138.7444  158.2404 N.am    1  UNL1       -0.3018
      5 H         143.6130  137.9230  157.7739 H       1  UNL1        0.1495
      6 C         142.5090  138.6550  159.4890 C.3     1  UNL1        0.1035
      7 C         142.7803  138.2810  160.9161 C.3     1  UNL1        0.0933
      8 N         141.3401  138.5285  161.2547 N.3     1  UNL1       -0.2711
      9 C         141.0689  138.9025  159.8276 C.3     1  UNL1        0.0933
     10 C         140.5136  138.4392  162.5032 C.3     1  UNL1        0.0577
     11 C         140.7822  137.3551  163.5046 C.3     1  UNL1        0.0170
     12 C         139.9557  137.2657  164.7530 C.3     1  UNL1        0.0165
     13 C         138.8604  138.2604  165.0003 C.3     1  UNL1        0.0915
     14 C         138.5918  139.3444  163.9990 C.3     1  UNL1        0.0165
     15 C         139.4183  139.4338  162.7504 C.3     1  UNL1        0.0170
     16 C         138.0340  138.1709  166.2488 C.1     1  UNL1        0.0721
     17 N         137.2074  138.0815  167.4973 N.1     1  UNL1       -0.1959
     18 N         144.9650  138.9242  155.7279 N.pl3   1  UNL1       -0.3093
     19 H         145.8879  138.5884  155.7964 H       1  UNL1        0.1487
     20 C         141.3270  137.8013  152.0694 C.3     1  UNL1        0.1537
     21 N         142.2857  137.6695  153.2155 N.ar    1  UNL1       -0.2476
     22 N         143.1679  138.7554  153.7564 N.ar    1  UNL1       -0.1544
     23 C         143.9579  138.1857  154.8971 C.ar    1  UNL1        0.1500
     24 C         143.5639  136.7476  155.0612 C.ar    1  UNL1        0.0503
     25 C         144.0128  135.6875  156.0228 C.ar    1  UNL1        0.0082
     26 C         143.4281  134.3084  155.9450 C.ar    1  UNL1        0.0716
     27 C         142.3946  133.9894  154.9057 C.ar    1  UNL1        0.0054
     28 C         141.9458  135.0495  153.9442 C.ar    1  UNL1        0.0188
     29 C         142.5304  136.4287  154.0219 C.ar    1  UNL1        0.0807
     30 C         143.8769  133.2481  156.9066 C.3     1  UNL1        0.4186
     31 F         144.3257  132.1880  157.8681 F       1  UNL1       -0.1659
     32 F         143.2648  134.0169  158.0398 F       1  UNL1       -0.1659
     33 F         144.4890  132.4794  155.7733 F       1  UNL1       -0.1659
@<TRIPOS>BOND
     1    20    21    1
     2    21    22   ar
     3    22    23   ar
     4    23    18    1
     5    18     1    1
     6     1     2    1
     7     2     3    2
     8     2     4   am
     9     4     6    1
    10     6     7    1
    11     7     8    1
    12    10     8    1
    13    10    11    1
    14    11    12    1
    15    12    13    1
    16    13    16    1
    17    16    17    3
    18    13    14    1
    19    14    15    1
    20     8     9    1
    21    23    24   ar
    22    24    25   ar
    23    25    26   ar
    24    26    30    1
    25    30    31    1
    26    30    32    1
    27    30    33    1
    28    26    27   ar
    29    27    28   ar
    30    28    29   ar
    31    29    21   ar
    32     9     6    1
    33    29    24   ar
    34    15    10    1
    35    18    19    1
    36     4     5    1
@<TRIPOS>MOLECULE
*****
 33 36 0 0 0
SMALL
GASTEIGER

@<TRIPOS>ATOM
      1 C         139.0616  139.5094  158.7834 C.3     1  UNL1        0.1747
      2 C         139.3568  139.8845  160.2054 C.2     1  UNL1        0.2425
      3 O         140.5204  140.7774  160.5195 O.2     1  UNL1       -0.2733
      4 N         138.4882  139.3668  161.3133 N.am    1  UNL1       -0.3018
      5 H         137.7244  138.7807  161.1071 H       1  UNL1        0.1495
      6 C         138.7833  139.7419  162.7353 C.3     1  UNL1        0.1035
      7 C         139.9318  139.5196  163.6744 C.3     1  UNL1        0.0933
      8 N         139.2008  140.2723  164.7464 N.3     1  UNL1       -0.2711
      9 C         138.0525  140.4946  163.8073 C.3     1  UNL1        0.0933
     10 C         139.4960  140.6474  166.1684 C.3     1  UNL1        0.0577
     11 C         139.1449  139.7048  167.2811 C.3     1  UNL1        0.0170
     12 C         139.4400  140.0798  168.7031 C.3     1  UNL1        0.0165
     13 C         140.0863  141.3977  169.0125 C.3     1  UNL1        0.0915
     14 C         140.4374  142.3404  167.8998 C.3     1  UNL1        0.0165
     15 C         140.1423  141.9652  166.4778 C.3     1  UNL1        0.0170
     16 C         140.3814  141.7727  170.4345 C.1     1  UNL1        0.0721
     17 N         140.6766  142.1477  171.8566 N.1     1  UNL1       -0.1959
     18 N         139.8031  138.3769  158.1371 N.pl3   1  UNL1       -0.3093
     19 H         139.4297  137.4663  158.1618 H       1  UNL1        0.1487
     20 C         144.0651  140.8185  156.1994 C.3     1  UNL1        0.1537
     21 N         143.0726  139.7541  156.5625 N.ar    1  UNL1       -0.2476
     22 N         141.7907  139.9629  157.3129 N.ar    1  UNL1       -0.1544
     23 C         141.1136  138.6318  157.4531 C.ar    1  UNL1        0.1500
     24 C         141.9770  137.6003  156.7894 C.ar    1  UNL1        0.0503
     25 C         141.8172  136.1191  156.6151 C.ar    1  UNL1        0.0082
     26 C         142.8680  135.3315  155.8904 C.ar    1  UNL1        0.0716
     27 C         144.0788  136.0251  155.3399 C.ar    1  UNL1        0.0054
     28 C         144.2386  137.5064  155.5142 C.ar    1  UNL1        0.0188
     29 C         143.1877  138.2939  156.2389 C.ar    1  UNL1        0.0807
     30 C         142.7082  133.8502  155.7160 C.3     1  UNL1        0.4186
     31 F         142.5484  132.3690  155.5417 F       1  UNL1       -0.1659
     32 F         141.2183  134.0166  155.6681 F       1  UNL1       -0.1659
     33 F         144.1982  133.6838  155.7640 F       1  UNL1       -0.1659
@<TRIPOS>BOND
     1    20    21    1
     2    21    22   ar
     3    22    23   ar
     4    23    18    1
     5    18     1    1
     6     1     2    1
     7     2     3    2
     8     2     4   am
     9     4     6    1
    10     6     7    1
    11     7     8    1
    12    10     8    1
    13    10    11    1
    14    11    12    1
    15    12    13    1
    16    13    16    1
    17    16    17    3
    18    13    14    1
    19    14    15    1
    20     8     9    1
    21    23    24   ar
    22    24    25   ar
    23    25    26   ar
    24    26    30    1
    25    30    31    1
    26    30    32    1
    27    30    33    1
    28    26    27   ar
    29    27    28   ar
    30    28    29   ar
    31    29    21   ar
    32     9     6    1
    33    29    24   ar
    34    15    10    1
    35    18    19    1
    36     4     5    1
@<TRIPOS>MOLECULE
*****
 33 36 0 0 0
SMALL
GASTEIGER

@<TRIPOS>ATOM
      1 C         140.8298  145.4221  158.9437 C.3     1  UNL1        0.1747
      2 C         140.7942  145.0493  160.3962 C.2     1  UNL1        0.2425
      3 O         139.7371  145.6235  161.2922 O.2     1  UNL1       -0.2733
      4 N         141.8156  144.1022  160.9526 N.am    1  UNL1       -0.3018
      5 H         142.5094  143.7253  160.3645 H       1  UNL1        0.1495
      6 C         141.7800  143.7294  162.4051 C.3     1  UNL1        0.1035
      7 C         142.0896  144.4386  163.6901 C.3     1  UNL1        0.0933
      8 N         141.7296  143.2022  164.4593 N.3     1  UNL1       -0.2711
      9 C         141.4200  142.4930  163.1743 C.3     1  UNL1        0.0933
     10 C         141.6940  142.8294  165.9118 C.3     1  UNL1        0.0577
     11 C         142.9545  142.4135  166.6105 C.3     1  UNL1        0.0170
     12 C         142.9189  142.0407  168.0629 C.3     1  UNL1        0.0165
     13 C         141.6227  142.0838  168.8168 C.3     1  UNL1        0.0915
     14 C         140.3622  142.4997  168.1181 C.3     1  UNL1        0.0165
     15 C         140.3979  142.8725  166.6656 C.3     1  UNL1        0.0170
     16 C         141.5872  141.7109  170.2692 C.1     1  UNL1        0.0721
     17 N         141.5516  141.3382  171.7217 N.1     1  UNL1       -0.1959
     18 N         139.8198  144.8454  157.9963 N.pl3   1  UNL1       -0.3093
     19 H         139.1925  145.4393  157.5241 H       1  UNL1        0.1487
     20 C         140.3281  140.0852  155.7685 C.3     1  UNL1        0.1537
     21 N         139.9993  141.1758  156.7444 N.ar    1  UNL1       -0.2476
     22 N         140.2468  142.6417  156.5449 N.ar    1  UNL1       -0.1544
     23 C         139.7656  143.3638  157.7684 C.ar    1  UNL1        0.1500
     24 C         139.2207  142.3441  158.7242 C.ar    1  UNL1        0.0503
     25 C         138.6117  142.4723  160.0890 C.ar    1  UNL1        0.0082
     26 C         138.1472  141.2482  160.8209 C.ar    1  UNL1        0.0716
     27 C         138.2916  139.8959  160.1880 C.ar    1  UNL1        0.0054
     28 C         138.9006  139.7678  158.8232 C.ar    1  UNL1        0.0188
     29 C         139.3651  140.9919  158.0913 C.ar    1  UNL1        0.0807
     30 C         137.5382  141.3763  162.1857 C.3     1  UNL1        0.4186
     31 F         136.9292  141.5045  163.5505 F       1  UNL1       -0.1659
     32 F         137.5444  142.8699  162.0482 F       1  UNL1       -0.1659
     33 F         137.5319  139.8827  162.3232 F       1  UNL1       -0.1659
@<TRIPOS>BOND
     1    20    21    1
     2    21    22   ar
     3    22    23   ar
     4    23    18    1
     5    18     1    1
     6     1     2    1
     7     2     3    2
     8     2     4   am
     9     4     6    1
    10     6     7    1
    11     7     8    1
    12    10     8    1
    13    10    11    1
    14    11    12    1
    15    12    13    1
    16    13    16    1
    17    16    17    3
    18    13    14    1
    19    14    15    1
    20     8     9    1
    21    23    24   ar
    22    24    25   ar
    23    25    26   ar
    24    26    30    1
    25    30    31    1
    26    30    32    1
    27    30    33    1
    28    26    27   ar
    29    27    28   ar
    30    28    29   ar
    31    29    21   ar
    32     9     6    1
    33    29    24   ar
    34    15    10    1
    35    18    19    1
    36     4     5    1
