@<TRIPOS>MOLECULE
*****
 27 30 0 0 0
SMALL
GASTEIGER

@<TRIPOS>ATOM
      1 N         140.7239  146.1820  156.4272 N.3     1  UNL1       -0.2711
      2 C         139.8967  146.2312  157.6775 C.3     1  UNL1        0.0939
      3 C         140.3682  145.5301  158.9169 C.3     1  UNL1        0.1123
      4 N         141.6670  144.7797  158.9060 N.am    1  UNL1       -0.2612
      5 C         142.1385  144.0786  160.1453 C.2     1  UNL1        0.3072
      6 O         143.4373  143.3282  160.1344 O.2     1  UNL1       -0.2523
      7 N         141.3113  144.1278  161.3956 N.am    1  UNL1       -0.2640
      8 C         139.9981  144.8347  161.5567 C.3     1  UNL1        0.0950
      9 C         139.5272  144.6226  162.9650 C.3     1  UNL1        0.0233
     10 C         140.5493  143.7845  163.6743 C.3     1  UNL1        0.0227
     11 C         141.6523  142.9460  164.2490 C.3     1  UNL1        0.0191
     12 C         141.5837  142.4932  165.6773 C.3     1  UNL1        0.0721
     13 N         140.4123  142.8791  166.5311 N.3     1  UNL1       -0.2738
     14 C         139.3094  143.7177  165.9564 C.3     1  UNL1        0.0721
     15 C         139.3779  144.1704  164.5280 C.3     1  UNL1        0.0191
     16 C         141.6519  143.4787  162.7044 C.3     1  UNL1        0.0950
     17 C         142.4943  144.7304  157.6557 C.3     1  UNL1        0.1123
     18 C         142.0228  145.4316  156.4163 C.3     1  UNL1        0.0939
     19 C         140.3438  142.4263  167.9595 C.3     1  UNL1        0.0625
     20 C         140.2564  140.9634  168.2792 C.3     1  UNL1        0.0481
     21 C         140.1879  140.5106  169.7077 C.3     1  UNL1        0.1435
     22 O         140.2069  141.5208  170.8163 O.3     1  UNL1       -0.3537
     23 C         140.2944  142.9838  170.4966 C.3     1  UNL1        0.1435
     24 C         140.3628  143.4365  169.0682 C.3     1  UNL1        0.0481
     25 C         139.1735  147.9213  155.2779 C.3     1  UNL1        0.0173
     26 C         140.2524  146.8831  155.1878 C.3     1  UNL1        0.0577
     27 C         140.8599  146.5460  153.8583 C.3     1  UNL1        0.0173
@<TRIPOS>BOND
     1    25    26    1
     2    26    27    1
     3    26     1    1
     4     1     2    1
     5     2     3    1
     6     3     4    1
     7     4     5   am
     8     5     6    2
     9     5     7   am
    10     7     8    1
    11     8     9    1
    12     9    10    1
    13    10    11    1
    14    11    12    1
    15    12    13    1
    16    13    19    1
    17    19    20    1
    18    20    21    1
    19    21    22    1
    20    22    23    1
    21    23    24    1
    22    13    14    1
    23    14    15    1
    24    10    16    1
    25     4    17    1
    26    17    18    1
    27    18     1    1
    28    16     7    1
    29    15    10    1
    30    24    19    1
@<TRIPOS>MOLECULE
*****
 27 30 0 0 0
SMALL
GASTEIGER

@<TRIPOS>ATOM
      1 N         142.1098  144.7322  156.4796 N.3     1  UNL1       -0.2711
      2 C         142.5307  143.8001  157.5768 C.3     1  UNL1        0.0939
      3 C         141.9467  143.9466  158.9506 C.3     1  UNL1        0.1123
      4 N         140.9417  145.0254  159.2273 N.am    1  UNL1       -0.2612
      5 C         140.3577  145.1719  160.6010 C.2     1  UNL1        0.3072
      6 O         139.3528  146.2506  160.8777 O.2     1  UNL1       -0.2523
      7 N         140.7786  144.2397  161.6982 N.am    1  UNL1       -0.2640
      8 C         141.7682  143.1194  161.5723 C.3     1  UNL1        0.0950
      9 C         141.8850  142.4515  162.9102 C.3     1  UNL1        0.0233
     10 C         140.9676  143.1589  163.8632 C.3     1  UNL1        0.0227
     11 C         140.0113  143.9599  164.6962 C.3     1  UNL1        0.0191
     12 C         139.8126  143.6215  166.1439 C.3     1  UNL1        0.0721
     13 N         140.5703  142.4822  166.7587 N.3     1  UNL1       -0.2738
     14 C         141.5266  141.6812  165.9257 C.3     1  UNL1        0.0721
     15 C         141.7253  142.0196  164.4780 C.3     1  UNL1        0.0191
     16 C         140.2838  144.2641  163.1142 C.3     1  UNL1        0.0950
     17 C         140.5208  145.9575  158.1300 C.3     1  UNL1        0.1123
     18 C         141.1048  145.8110  156.7562 C.3     1  UNL1        0.0939
     19 C         140.3716  142.1438  168.2065 C.3     1  UNL1        0.0625
     20 C         140.1942  140.7145  168.6252 C.3     1  UNL1        0.0481
     21 C         139.9955  140.3761  170.0730 C.3     1  UNL1        0.1435
     22 O         139.9742  141.4672  171.1021 O.3     1  UNL1       -0.3537
     23 C         140.1515  142.8967  170.6834 C.3     1  UNL1        0.1435
     24 C         140.3502  143.2350  169.2356 C.3     1  UNL1        0.0481
     25 C         142.2436  145.4924  153.9988 C.3     1  UNL1        0.0173
     26 C         142.6938  144.5857  155.1057 C.3     1  UNL1        0.0577
     27 C         143.7280  143.5324  154.8388 C.3     1  UNL1        0.0173
@<TRIPOS>BOND
     1    25    26    1
     2    26    27    1
     3    26     1    1
     4     1     2    1
     5     2     3    1
     6     3     4    1
     7     4     5   am
     8     5     6    2
     9     5     7   am
    10     7     8    1
    11     8     9    1
    12     9    10    1
    13    10    11    1
    14    11    12    1
    15    12    13    1
    16    13    19    1
    17    19    20    1
    18    20    21    1
    19    21    22    1
    20    22    23    1
    21    23    24    1
    22    13    14    1
    23    14    15    1
    24    10    16    1
    25     4    17    1
    26    17    18    1
    27    18     1    1
    28    16     7    1
    29    15    10    1
    30    24    19    1
@<TRIPOS>MOLECULE
*****
 27 30 0 0 0
SMALL
GASTEIGER

@<TRIPOS>ATOM
      1 N         141.7778  137.1738  156.9542 N.3     1  UNL1       -0.2711
      2 C         142.6420  137.4215  158.1550 C.3     1  UNL1        0.0939
      3 C         142.0921  138.1693  159.3333 C.3     1  UNL1        0.1123
      4 N         140.6780  138.6694  159.3109 N.am    1  UNL1       -0.2612
      5 C         140.1283  139.4172  160.4891 C.2     1  UNL1        0.3072
      6 O         138.7143  139.9173  160.4667 O.2     1  UNL1       -0.2523
      7 N         140.9924  139.6649  161.6899 N.am    1  UNL1       -0.2640
      8 C         142.4177  139.2276  161.8558 C.3     1  UNL1        0.0950
      9 C         142.8892  139.6859  163.2040 C.3     1  UNL1        0.0233
     10 C         141.7554  140.4064  163.8714 C.3     1  UNL1        0.0227
     11 C         140.5374  141.0970  164.4096 C.3     1  UNL1        0.0191
     12 C         140.5701  141.7209  165.7733 C.3     1  UNL1        0.0721
     13 N         141.8208  141.6541  166.5988 N.3     1  UNL1       -0.2738
     14 C         143.0387  140.9635  166.0606 C.3     1  UNL1        0.0721
     15 C         143.0060  140.3397  164.6969 C.3     1  UNL1        0.0191
     16 C         140.5831  140.3934  162.9357 C.3     1  UNL1        0.0950
     17 C         139.8139  138.4217  158.1101 C.3     1  UNL1        0.1123
     18 C         140.3637  137.6739  156.9318 C.3     1  UNL1        0.0939
     19 C         141.8534  142.2781  167.9625 C.3     1  UNL1        0.0625
     20 C         143.1050  142.2141  168.7868 C.3     1  UNL1        0.0481
     21 C         143.1377  142.8380  170.1505 C.3     1  UNL1        0.1435
     22 O         141.9187  143.5259  170.6899 O.3     1  UNL1       -0.3537
     23 C         140.6671  143.5899  169.8656 C.3     1  UNL1        0.1435
     24 C         140.6345  142.9659  168.5020 C.3     1  UNL1        0.0481
     25 C         143.7958  136.1297  155.6942 C.3     1  UNL1        0.0173
     26 C         142.3276  136.4260  155.7759 C.3     1  UNL1        0.0577
     27 C         141.4092  135.9744  154.6792 C.3     1  UNL1        0.0173
@<TRIPOS>BOND
     1    25    26    1
     2    26    27    1
     3    26     1    1
     4     1     2    1
     5     2     3    1
     6     3     4    1
     7     4     5   am
     8     5     6    2
     9     5     7   am
    10     7     8    1
    11     8     9    1
    12     9    10    1
    13    10    11    1
    14    11    12    1
    15    12    13    1
    16    13    19    1
    17    19    20    1
    18    20    21    1
    19    21    22    1
    20    22    23    1
    21    23    24    1
    22    13    14    1
    23    14    15    1
    24    10    16    1
    25     4    17    1
    26    17    18    1
    27    18     1    1
    28    16     7    1
    29    15    10    1
    30    24    19    1
@<TRIPOS>MOLECULE
*****
 27 30 0 0 0
SMALL
GASTEIGER

@<TRIPOS>ATOM
      1 N         143.1811  138.1240  157.0768 N.3     1  UNL1       -0.2711
      2 C         142.7388  137.6401  158.4259 C.3     1  UNL1        0.0939
      3 C         142.8338  138.5476  159.6165 C.3     1  UNL1        0.1123
      4 N         143.3712  139.9391  159.4579 N.am    1  UNL1       -0.2612
      5 C         143.4662  140.8465  160.6484 C.2     1  UNL1        0.3072
      6 O         144.0035  142.2380  160.4898 O.2     1  UNL1       -0.2523
      7 N         143.0239  140.3626  161.9975 N.am    1  UNL1       -0.2640
      8 C         142.4685  139.0043  162.3085 C.3     1  UNL1        0.0950
      9 C         142.1607  138.9542  163.7757 C.3     1  UNL1        0.0233
     10 C         142.5258  140.2815  164.3716 C.3     1  UNL1        0.0227
     11 C         142.9351  141.6521  164.8231 C.3     1  UNL1        0.0191
     12 C         142.7919  142.0407  166.2648 C.3     1  UNL1        0.0721
     13 N         142.2393  141.0587  167.2549 N.3     1  UNL1       -0.2738
     14 C         141.8300  139.6881  166.8034 C.3     1  UNL1        0.0721
     15 C         141.9732  139.2995  165.3617 C.3     1  UNL1        0.0191
     16 C         143.0593  141.1519  163.2726 C.3     1  UNL1        0.0950
     17 C         143.8135  140.4231  158.1088 C.3     1  UNL1        0.1123
     18 C         143.7184  139.5156  156.9182 C.3     1  UNL1        0.0939
     19 C         142.0961  141.4474  168.6966 C.3     1  UNL1        0.0625
     20 C         141.0394  140.8046  169.5453 C.3     1  UNL1        0.0481
     21 C         140.8962  141.1932  170.9870 C.3     1  UNL1        0.1435
     22 O         141.8096  142.2247  171.5800 O.3     1  UNL1       -0.3537
     23 C         142.8663  142.8676  170.7313 C.3     1  UNL1        0.1435
     24 C         143.0095  142.4789  169.2896 C.3     1  UNL1        0.0481
     25 C         141.9613  137.3790  154.9072 C.3     1  UNL1        0.0173
     26 C         143.0861  137.2166  155.8862 C.3     1  UNL1        0.0577
     27 C         144.1159  136.1465  155.6747 C.3     1  UNL1        0.0173
@<TRIPOS>BOND
     1    25    26    1
     2    26    27    1
     3    26     1    1
     4     1     2    1
     5     2     3    1
     6     3     4    1
     7     4     5   am
     8     5     6    2
     9     5     7   am
    10     7     8    1
    11     8     9    1
    12     9    10    1
    13    10    11    1
    14    11    12    1
    15    12    13    1
    16    13    19    1
    17    19    20    1
    18    20    21    1
    19    21    22    1
    20    22    23    1
    21    23    24    1
    22    13    14    1
    23    14    15    1
    24    10    16    1
    25     4    17    1
    26    17    18    1
    27    18     1    1
    28    16     7    1
    29    15    10    1
    30    24    19    1
@<TRIPOS>MOLECULE
*****
 27 30 0 0 0
SMALL
GASTEIGER

@<TRIPOS>ATOM
      1 N         143.7669  139.3974  157.2672 N.3     1  UNL1       -0.2711
      2 C         144.0455  140.3363  158.4033 C.3     1  UNL1        0.0939
      3 C         143.3872  140.1201  159.7336 C.3     1  UNL1        0.1123
      4 N         142.4501  138.9649  159.9279 N.am    1  UNL1       -0.2612
      5 C         141.7919  138.7488  161.2582 C.2     1  UNL1        0.3072
      6 O         140.8549  137.5937  161.4524 O.2     1  UNL1       -0.2523
      7 N         142.0705  139.6877  162.3942 N.am    1  UNL1       -0.2640
      8 C         142.9795  140.8802  162.3499 C.3     1  UNL1        0.0950
      9 C         142.9599  141.5285  163.7024 C.3     1  UNL1        0.0233
     10 C         142.0387  140.7367  164.5828 C.3     1  UNL1        0.0227
     11 C         141.0936  139.8512  165.3394 C.3     1  UNL1        0.0191
     12 C         140.7777  140.1455  166.7759 C.3     1  UNL1        0.0721
     13 N         141.4069  141.3253  167.4557 N.3     1  UNL1       -0.2738
     14 C         142.3520  142.2108  166.6991 C.3     1  UNL1        0.0721
     15 C         142.6679  141.9165  165.2626 C.3     1  UNL1        0.0191
     16 C         141.4891  139.5991  163.7742 C.3     1  UNL1        0.0950
     17 C         142.1715  138.0260  158.7918 C.3     1  UNL1        0.1123
     18 C         142.8298  138.2422  157.4614 C.3     1  UNL1        0.0939
     19 C         141.0909  141.6195  168.8923 C.3     1  UNL1        0.0625
     20 C         141.5756  140.6969  169.9710 C.3     1  UNL1        0.0481
     21 C         141.2596  140.9911  171.4076 C.3     1  UNL1        0.1435
     22 O         140.4589  142.2080  171.7653 O.3     1  UNL1       -0.3537
     23 C         139.9742  143.1307  170.6865 C.3     1  UNL1        0.1435
     24 C         140.2902  142.8364  169.2500 C.3     1  UNL1        0.0481
     25 C         144.0043  138.7980  154.7503 C.3     1  UNL1        0.0173
     26 C         144.4252  139.6135  155.9368 C.3     1  UNL1        0.0577
     27 C         145.5045  140.6453  155.7929 C.3     1  UNL1        0.0173
@<TRIPOS>BOND
     1    25    26    1
     2    26    27    1
     3    26     1    1
     4     1     2    1
     5     2     3    1
     6     3     4    1
     7     4     5   am
     8     5     6    2
     9     5     7   am
    10     7     8    1
    11     8     9    1
    12     9    10    1
    13    10    11    1
    14    11    12    1
    15    12    13    1
    16    13    19    1
    17    19    20    1
    18    20    21    1
    19    21    22    1
    20    22    23    1
    21    23    24    1
    22    13    14    1
    23    14    15    1
    24    10    16    1
    25     4    17    1
    26    17    18    1
    27    18     1    1
    28    16     7    1
    29    15    10    1
    30    24    19    1
@<TRIPOS>MOLECULE
*****
 27 30 0 0 0
SMALL
GASTEIGER

@<TRIPOS>ATOM
      1 N         139.5788  140.3367  167.5186 N.3     1  UNL1       -0.2711
      2 C         140.1892  141.4867  166.7736 C.3     1  UNL1        0.0939
      3 C         139.9125  141.6637  165.3100 C.3     1  UNL1        0.1123
      4 N         139.0255  140.6907  164.5913 N.am    1  UNL1       -0.2612
      5 C         138.7488  140.8677  163.1278 C.2     1  UNL1        0.3072
      6 O         137.8618  139.8948  162.4091 O.2     1  UNL1       -0.2523
      7 N         139.3592  142.0177  162.3829 N.am    1  UNL1       -0.2640
      8 C         140.2616  143.0655  162.9643 C.3     1  UNL1        0.0950
      9 C         140.6345  144.0172  161.8665 C.3     1  UNL1        0.0233
     10 C         139.9626  143.5577  160.6065 C.3     1  UNL1        0.0227
     11 C         139.2306  142.9805  159.4314 C.3     1  UNL1        0.0191
     12 C         139.3295  143.6407  158.0882 C.3     1  UNL1        0.0721
     13 N         140.1604  144.8782  157.9201 N.3     1  UNL1       -0.2738
     14 C         140.8924  145.4555  159.0953 C.3     1  UNL1        0.0721
     15 C         140.7935  144.7952  160.4385 C.3     1  UNL1        0.0191
     16 C         139.1745  142.3220  160.9257 C.3     1  UNL1        0.0950
     17 C         138.4151  139.5407  165.3363 C.3     1  UNL1        0.1123
     18 C         138.6917  139.3637  166.7999 C.3     1  UNL1        0.0939
     19 C         140.2593  145.5385  156.5769 C.3     1  UNL1        0.0625
     20 C         141.0976  144.9206  155.4973 C.3     1  UNL1        0.0481
     21 C         141.1965  145.5809  154.1540 C.3     1  UNL1        0.1435
     22 O         140.4571  146.8590  153.8904 O.3     1  UNL1       -0.3537
     23 C         139.6187  147.4769  154.9700 C.3     1  UNL1        0.1435
     24 C         139.5199  146.8167  156.3132 C.3     1  UNL1        0.0481
     25 C         138.7501  140.3348  169.9810 C.3     1  UNL1        0.0173
     26 C         139.8555  140.1597  168.9822 C.3     1  UNL1        0.0577
     27 C         141.2375  139.8075  169.4470 C.3     1  UNL1        0.0173
@<TRIPOS>BOND
     1    25    26    1
     2    26    27    1
     3    26     1    1
     4     1     2    1
     5     2     3    1
     6     3     4    1
     7     4     5   am
     8     5     6    2
     9     5     7   am
    10     7     8    1
    11     8     9    1
    12     9    10    1
    13    10    11    1
    14    11    12    1
    15    12    13    1
    16    13    19    1
    17    19    20    1
    18    20    21    1
    19    21    22    1
    20    22    23    1
    21    23    24    1
    22    13    14    1
    23    14    15    1
    24    10    16    1
    25     4    17    1
    26    17    18    1
    27    18     1    1
    28    16     7    1
    29    15    10    1
    30    24    19    1
@<TRIPOS>MOLECULE
*****
 27 30 0 0 0
SMALL
GASTEIGER

@<TRIPOS>ATOM
      1 N         144.8890  142.2262  157.1576 N.3     1  UNL1       -0.2711
      2 C         145.3802  142.4637  158.5549 C.3     1  UNL1        0.0939
      3 C         144.4444  142.3039  159.7162 C.3     1  UNL1        0.1123
      4 N         143.0173  141.9065  159.4802 N.am    1  UNL1       -0.2612
      5 C         142.0815  141.7467  160.6415 C.2     1  UNL1        0.3072
      6 O         140.6545  141.3493  160.4056 O.2     1  UNL1       -0.2523
      7 N         142.5727  141.9842  162.0387 N.am    1  UNL1       -0.2640
      8 C         143.9651  142.3841  162.4278 C.3     1  UNL1        0.0950
      9 C         144.0107  142.5106  163.9218 C.3     1  UNL1        0.0233
     10 C         142.6464  142.1889  164.4561 C.3     1  UNL1        0.0227
     11 C         141.2384  141.8441  164.8414 C.3     1  UNL1        0.0191
     12 C         140.8339  141.8472  166.2858 C.3     1  UNL1        0.0721
     13 N         141.8375  142.1951  167.3449 N.3     1  UNL1       -0.2738
     14 C         143.2456  142.5399  166.9596 C.3     1  UNL1        0.0721
     15 C         143.6500  142.5368  165.5152 C.3     1  UNL1        0.0191
     16 C         141.7577  141.8636  163.2923 C.3     1  UNL1        0.0950
     17 C         142.5261  141.6689  158.0830 C.3     1  UNL1        0.1123
     18 C         143.4619  141.8288  156.9217 C.3     1  UNL1        0.0939
     19 C         141.4330  142.1981  168.7894 C.3     1  UNL1        0.0625
     20 C         140.3049  143.0726  169.2504 C.3     1  UNL1        0.0481
     21 C         139.9003  143.0756  170.6949 C.3     1  UNL1        0.1435
     22 O         140.6240  142.2043  171.6783 O.3     1  UNL1       -0.3537
     23 C         141.7523  141.3298  171.2171 C.3     1  UNL1        0.1435
     24 C         142.1567  141.3268  169.7727 C.3     1  UNL1        0.0481
     25 C         145.2829  142.4448  154.5989 C.3     1  UNL1        0.0173
     26 C         145.8249  142.3860  155.9963 C.3     1  UNL1        0.0577
     27 C         147.3028  142.4871  156.2324 C.3     1  UNL1        0.0173
@<TRIPOS>BOND
     1    25    26    1
     2    26    27    1
     3    26     1    1
     4     1     2    1
     5     2     3    1
     6     3     4    1
     7     4     5   am
     8     5     6    2
     9     5     7   am
    10     7     8    1
    11     8     9    1
    12     9    10    1
    13    10    11    1
    14    11    12    1
    15    12    13    1
    16    13    19    1
    17    19    20    1
    18    20    21    1
    19    21    22    1
    20    22    23    1
    21    23    24    1
    22    13    14    1
    23    14    15    1
    24    10    16    1
    25     4    17    1
    26    17    18    1
    27    18     1    1
    28    16     7    1
    29    15    10    1
    30    24    19    1
@<TRIPOS>MOLECULE
*****
 27 30 0 0 0
SMALL
GASTEIGER

@<TRIPOS>ATOM
      1 N         138.4353  142.6784  156.7503 N.3     1  UNL1       -0.2711
      2 C         138.9775  143.3774  157.9616 C.3     1  UNL1        0.0939
      3 C         138.9334  142.7017  159.3000 C.3     1  UNL1        0.1123
      4 N         138.3470  141.3269  159.4272 N.am    1  UNL1       -0.2612
      5 C         138.3029  140.6512  160.7656 C.2     1  UNL1        0.3072
      6 O         137.7165  139.2764  160.8927 O.2     1  UNL1       -0.2523
      7 N         138.8451  141.3502  161.9769 N.am    1  UNL1       -0.2640
      8 C         139.4583  142.7189  162.0043 C.3     1  UNL1        0.0950
      9 C         139.8616  143.0180  163.4178 C.3     1  UNL1        0.0233
     10 C         139.4975  141.8341  164.2641 C.3     1  UNL1        0.0227
     11 C         139.0788  140.5837  164.9789 C.3     1  UNL1        0.0191
     12 C         139.3036  140.4534  166.4563 C.3     1  UNL1        0.0721
     13 N         139.9470  141.5735  167.2187 N.3     1  UNL1       -0.2738
     14 C         140.3657  142.8239  166.5038 C.3     1  UNL1        0.0721
     15 C         140.1410  142.9542  165.0265 C.3     1  UNL1        0.0191
     16 C         138.8693  140.8034  163.3735 C.3     1  UNL1        0.0950
     17 C         137.8047  140.6278  158.2159 C.3     1  UNL1        0.1123
     18 C         137.8489  141.3035  156.8774 C.3     1  UNL1        0.0939
     19 C         140.1717  141.4432  168.6961 C.3     1  UNL1        0.0625
     20 C         140.5305  142.6513  169.5096 C.3     1  UNL1        0.0481
     21 C         140.7552  142.5209  170.9869 C.3     1  UNL1        0.1435
     22 O         140.6211  141.1825  171.6507 O.3     1  UNL1       -0.3537
     23 C         140.2624  139.9744  170.8372 C.3     1  UNL1        0.1435
     24 C         140.0377  140.1048  169.3599 C.3     1  UNL1        0.0481
     25 C         139.5725  143.0221  154.4397 C.3     1  UNL1        0.0173
     26 C         138.4794  143.3541  155.4118 C.3     1  UNL1        0.0577
     27 C         137.4303  144.3618  155.0454 C.3     1  UNL1        0.0173
@<TRIPOS>BOND
     1    25    26    1
     2    26    27    1
     3    26     1    1
     4     1     2    1
     5     2     3    1
     6     3     4    1
     7     4     5   am
     8     5     6    2
     9     5     7   am
    10     7     8    1
    11     8     9    1
    12     9    10    1
    13    10    11    1
    14    11    12    1
    15    12    13    1
    16    13    19    1
    17    19    20    1
    18    20    21    1
    19    21    22    1
    20    22    23    1
    21    23    24    1
    22    13    14    1
    23    14    15    1
    24    10    16    1
    25     4    17    1
    26    17    18    1
    27    18     1    1
    28    16     7    1
    29    15    10    1
    30    24    19    1
@<TRIPOS>MOLECULE
*****
 27 30 0 0 0
SMALL
GASTEIGER

@<TRIPOS>ATOM
      1 N         138.0199  141.6294  156.6493 N.3     1  UNL1       -0.2711
      2 C         137.8685  140.7813  157.8771 C.3     1  UNL1        0.0939
      3 C         138.3431  141.2925  159.2050 C.3     1  UNL1        0.1123
      4 N         138.9691  142.6520  159.3051 N.am    1  UNL1       -0.2612
      5 C         139.4437  143.1632  160.6329 C.2     1  UNL1        0.3072
      6 O         140.0698  144.5227  160.7330 O.2     1  UNL1       -0.2523
      7 N         139.2923  142.3151  161.8608 N.am    1  UNL1       -0.2640
      8 C         138.6892  140.9427  161.9155 C.3     1  UNL1        0.0950
      9 C         138.7416  140.4698  163.3381 C.3     1  UNL1        0.0233
     10 C         139.3771  141.5498  164.1626 C.3     1  UNL1        0.0227
     11 C         140.0249  142.7126  164.8541 C.3     1  UNL1        0.0191
     12 C         140.2759  142.6612  166.3320 C.3     1  UNL1        0.0721
     13 N         139.8792  141.4471  167.1184 N.3     1  UNL1       -0.2738
     14 C         139.2314  140.2843  166.4269 C.3     1  UNL1        0.0721
     15 C         138.9804  140.3357  164.9489 C.3     1  UNL1        0.0191
     16 C         139.7175  142.6903  163.2495 C.3     1  UNL1        0.0950
     17 C         139.1205  143.5002  158.0772 C.3     1  UNL1        0.1123
     18 C         138.6459  142.9890  156.7493 C.3     1  UNL1        0.0939
     19 C         140.1302  141.3957  168.5964 C.3     1  UNL1        0.0625
     20 C         140.0413  140.0889  169.3273 C.3     1  UNL1        0.0481
     21 C         140.2924  140.0376  170.8053 C.3     1  UNL1        0.1435
     22 O         140.6323  141.2931  171.5523 O.3     1  UNL1       -0.3537
     23 C         140.7212  142.6000  170.8214 C.3     1  UNL1        0.1435
     24 C         140.4702  142.6513  169.3434 C.3     1  UNL1        0.0481
     25 C         138.3869  141.3189  154.0960 C.3     1  UNL1        0.0173
     26 C         137.5452  141.1182  155.3213 C.3     1  UNL1        0.0577
     27 C         136.2289  140.4062  155.2187 C.3     1  UNL1        0.0173
@<TRIPOS>BOND
     1    25    26    1
     2    26    27    1
     3    26     1    1
     4     1     2    1
     5     2     3    1
     6     3     4    1
     7     4     5   am
     8     5     6    2
     9     5     7   am
    10     7     8    1
    11     8     9    1
    12     9    10    1
    13    10    11    1
    14    11    12    1
    15    12    13    1
    16    13    19    1
    17    19    20    1
    18    20    21    1
    19    21    22    1
    20    22    23    1
    21    23    24    1
    22    13    14    1
    23    14    15    1
    24    10    16    1
    25     4    17    1
    26    17    18    1
    27    18     1    1
    28    16     7    1
    29    15    10    1
    30    24    19    1
