@<TRIPOS>MOLECULE
*****
 27 28 0 0 0
SMALL
GASTEIGER

@<TRIPOS>ATOM
      1 C         141.6737  139.9326  165.3801 C.3     1  UNL1        0.1960
      2 O         142.3936  139.2080  166.4786 O.3     1  UNL1       -0.3728
      3 H         143.3307  139.4583  166.4711 H       1  UNL1        0.2114
      4 C         142.9563  140.5994  164.9794 C.ar    1  UNL1        0.0119
      5 C         143.1791  142.0485  165.2961 C.ar    1  UNL1       -0.0015
      6 C         144.4616  142.7152  164.8954 C.ar    1  UNL1       -0.0002
      7 C         145.5214  141.9327  164.1779 C.ar    1  UNL1       -0.0000
      8 C         145.2986  140.4836  163.8612 C.ar    1  UNL1       -0.0002
      9 C         144.0160  139.8169  164.2619 C.ar    1  UNL1       -0.0015
     10 C         140.3912  139.2660  165.7808 C.3     1  UNL1        0.0391
     11 C         139.8463  138.1341  164.9610 C.3     1  UNL1        0.0032
     12 C         138.5637  137.4674  165.3617 C.3     1  UNL1        0.0001
     13 C         137.8261  137.9325  166.5822 C.3     1  UNL1        0.0000
     14 C         138.3710  139.0643  167.4019 C.3     1  UNL1        0.0001
     15 C         139.6536  139.7311  167.0013 C.3     1  UNL1        0.0032
     16 C         140.9539  140.6573  164.2817 C.2     1  UNL1        0.3462
     17 O         141.4272  140.5309  162.8639 O.2     1  UNL1       -0.2471
     18 O         139.7606  141.5084  164.6009 O.3     1  UNL1       -0.4319
     19 C         139.9509  142.8879  165.1584 C.3     1  UNL1        0.2843
     20 C         140.2820  143.2788  168.1143 C.1     1  UNL1       -0.0695
     21 C         140.1165  143.0834  166.6364 C.1     1  UNL1       -0.0424
     22 C         140.4476  143.4742  169.5923 C.3     1  UNL1        0.1499
     23 N         141.3455  142.5613  170.3736 N.3     1  UNL1       -0.2618
     24 C         143.7818  142.3946  169.4871 C.3     1  UNL1        0.0188
     25 C         142.8037  142.8833  170.5139 C.3     1  UNL1        0.0730
     26 C         140.7850  141.3264  171.0146 C.3     1  UNL1        0.0730
     27 C         140.9873  139.9881  170.3682 C.3     1  UNL1        0.0188
@<TRIPOS>BOND
     1    24    25    1
     2    25    23    1
     3    23    26    1
     4    26    27    1
     5    23    22    1
     6    22    20    1
     7    20    21    3
     8    21    19    1
     9    19    18    1
    10    18    16    1
    11    16    17    2
    12    16     1    1
    13     1     2    1
    14     1     4    1
    15     4     5   ar
    16     5     6   ar
    17     6     7   ar
    18     7     8   ar
    19     8     9   ar
    20     1    10    1
    21    10    11    1
    22    11    12    1
    23    12    13    1
    24    13    14    1
    25    14    15    1
    26     9     4   ar
    27    15    10    1
    28     2     3    1
@<TRIPOS>MOLECULE
*****
 27 28 0 0 0
SMALL
GASTEIGER

@<TRIPOS>ATOM
      1 C         141.6974  139.9621  165.3841 C.3     1  UNL1        0.1960
      2 O         142.4072  139.2705  166.5100 O.3     1  UNL1       -0.3728
      3 H         141.7766  138.7201  167.0002 H       1  UNL1        0.2114
      4 C         140.4121  139.3037  165.7899 C.ar    1  UNL1        0.0119
      5 C         139.8459  138.1893  164.9609 C.ar    1  UNL1       -0.0015
      6 C         138.5607  137.5310  165.3667 C.ar    1  UNL1       -0.0002
      7 C         137.8416  137.9871  166.6016 C.ar    1  UNL1       -0.0000
      8 C         138.4078  139.1016  167.4306 C.ar    1  UNL1       -0.0002
      9 C         139.6931  139.7599  167.0248 C.ar    1  UNL1       -0.0015
     10 C         142.9826  140.6205  164.9782 C.3     1  UNL1        0.0391
     11 C         143.2106  142.0716  165.2821 C.3     1  UNL1        0.0032
     12 C         144.4958  142.7300  164.8763 C.3     1  UNL1        0.0001
     13 C         145.5531  141.9373  164.1665 C.3     1  UNL1        0.0000
     14 C         145.3252  140.4862  163.8626 C.3     1  UNL1        0.0001
     15 C         144.0399  139.8278  164.2685 C.3     1  UNL1        0.0032
     16 C         140.9876  140.6537  164.2581 C.2     1  UNL1        0.3462
     17 O         141.4744  140.4863  162.8492 O.2     1  UNL1       -0.2471
     18 O         139.7908  141.5127  164.5410 O.3     1  UNL1       -0.4319
     19 C         139.9732  142.8905  165.1052 C.3     1  UNL1        0.2843
     20 C         140.2942  143.2695  168.0638 C.1     1  UNL1       -0.0695
     21 C         140.1337  143.0801  166.5846 C.1     1  UNL1       -0.0424
     22 C         140.4546  143.4590  169.5431 C.3     1  UNL1        0.1499
     23 N         141.3317  142.5286  170.3276 N.3     1  UNL1       -0.2618
     24 C         141.1349  139.9383  170.3570 C.3     1  UNL1        0.0188
     25 C         140.7564  141.2762  170.9196 C.3     1  UNL1        0.0730
     26 C         142.7840  142.8508  170.5202 C.3     1  UNL1        0.0730
     27 C         143.7969  142.3728  169.5225 C.3     1  UNL1        0.0188
@<TRIPOS>BOND
     1    24    25    1
     2    25    23    1
     3    23    26    1
     4    26    27    1
     5    23    22    1
     6    22    20    1
     7    20    21    3
     8    21    19    1
     9    19    18    1
    10    18    16    1
    11    16    17    2
    12    16     1    1
    13     1     2    1
    14     1     4    1
    15     4     5   ar
    16     5     6   ar
    17     6     7   ar
    18     7     8   ar
    19     8     9   ar
    20     1    10    1
    21    10    11    1
    22    11    12    1
    23    12    13    1
    24    13    14    1
    25    14    15    1
    26     9     4   ar
    27    15    10    1
    28     2     3    1
@<TRIPOS>MOLECULE
*****
 27 28 0 0 0
SMALL
GASTEIGER

@<TRIPOS>ATOM
      1 C         140.4228  140.1981  166.2787 C.3     1  UNL1        0.1960
      2 O         138.9619  140.3551  165.9770 O.3     1  UNL1       -0.3728
      3 H         138.5345  140.8479  166.6949 H       1  UNL1        0.2114
      4 C         140.2384  140.9509  167.5630 C.ar    1  UNL1        0.0119
      5 C         139.6217  140.2708  168.7491 C.ar    1  UNL1       -0.0015
      6 C         139.4374  141.0236  170.0334 C.ar    1  UNL1       -0.0002
      7 C         139.8698  142.4565  170.1314 C.ar    1  UNL1       -0.0000
      8 C         140.4865  143.1367  168.9453 C.ar    1  UNL1       -0.0002
      9 C         140.6708  142.3839  167.6611 C.ar    1  UNL1       -0.0015
     10 C         140.6072  139.4454  164.9945 C.3     1  UNL1        0.0391
     11 C         140.4780  140.1592  163.6815 C.3     1  UNL1        0.0032
     12 C         140.6624  139.4064  162.3972 C.3     1  UNL1        0.0001
     13 C         140.9759  137.9398  162.4259 C.3     1  UNL1        0.0000
     14 C         141.1051  137.2260  163.7388 C.3     1  UNL1        0.0001
     15 C         140.9207  137.9788  165.0231 C.3     1  UNL1        0.0032
     16 C         141.8837  140.0412  166.5804 C.2     1  UNL1        0.3462
     17 O         142.3201  139.4435  167.8852 O.2     1  UNL1       -0.2471
     18 O         142.9083  140.4820  165.5774 O.3     1  UNL1       -0.4319
     19 C         143.5035  141.8558  165.6675 C.3     1  UNL1        0.2843
     20 C         142.1754  144.1599  164.2791 C.1     1  UNL1       -0.0695
     21 C         142.8394  143.0079  164.9733 C.1     1  UNL1       -0.0424
     22 C         141.5114  145.3119  163.5849 C.3     1  UNL1        0.1499
     23 N         140.0786  145.2031  163.1542 N.3     1  UNL1       -0.2618
     24 C         140.3077  145.5233  160.5862 C.3     1  UNL1        0.0188
     25 C         139.6267  145.8546  161.8809 C.3     1  UNL1        0.0730
     26 C         139.0979  144.4428  163.9968 C.3     1  UNL1        0.0730
     27 C         138.7747  144.9162  165.3829 C.3     1  UNL1        0.0188
@<TRIPOS>BOND
     1    24    25    1
     2    25    23    1
     3    23    26    1
     4    26    27    1
     5    23    22    1
     6    22    20    1
     7    20    21    3
     8    21    19    1
     9    19    18    1
    10    18    16    1
    11    16    17    2
    12    16     1    1
    13     1     2    1
    14     1     4    1
    15     4     5   ar
    16     5     6   ar
    17     6     7   ar
    18     7     8   ar
    19     8     9   ar
    20     1    10    1
    21    10    11    1
    22    11    12    1
    23    12    13    1
    24    13    14    1
    25    14    15    1
    26     9     4   ar
    27    15    10    1
    28     2     3    1
@<TRIPOS>MOLECULE
*****
 27 28 0 0 0
SMALL
GASTEIGER

@<TRIPOS>ATOM
      1 C         140.3882  140.1105  166.2111 C.3     1  UNL1        0.1960
      2 O         138.9266  140.2687  165.9137 O.3     1  UNL1       -0.3728
      3 H         138.7216  139.8455  165.0653 H       1  UNL1        0.2114
      4 C         140.5688  139.3604  164.9247 C.ar    1  UNL1        0.0119
      5 C         140.4286  140.0754  163.6136 C.ar    1  UNL1       -0.0015
      6 C         140.6092  139.3253  162.3272 C.ar    1  UNL1       -0.0002
      7 C         140.9301  137.8603  162.3520 C.ar    1  UNL1       -0.0000
      8 C         141.0703  137.1453  163.6631 C.ar    1  UNL1       -0.0002
      9 C         140.8897  137.8953  164.9494 C.ar    1  UNL1       -0.0015
     10 C         140.2077  140.8605  167.4975 C.3     1  UNL1        0.0391
     11 C         140.6964  142.2737  167.6167 C.3     1  UNL1        0.0032
     12 C         140.5158  143.0237  168.9031 C.3     1  UNL1        0.0001
     13 C         139.8466  142.3606  170.0703 C.3     1  UNL1        0.0000
     14 C         139.3579  140.9475  169.9511 C.3     1  UNL1        0.0001
     15 C         139.5384  140.1974  168.6647 C.3     1  UNL1        0.0032
     16 C         141.8499  139.9522  166.5085 C.2     1  UNL1        0.3462
     17 O         142.2902  139.3853  167.8256 O.2     1  UNL1       -0.2471
     18 O         142.8713  140.3609  165.4888 O.3     1  UNL1       -0.4319
     19 C         143.5264  141.7071  165.5812 C.3     1  UNL1        0.2843
     20 C         142.2838  144.0763  164.2236 C.1     1  UNL1       -0.0695
     21 C         142.9050  142.8917  164.9024 C.1     1  UNL1       -0.0424
     22 C         141.6626  145.2608  163.5448 C.3     1  UNL1        0.1499
     23 N         140.1827  145.2954  163.3022 N.3     1  UNL1       -0.2618
     24 C         140.3244  145.4913  160.7154 C.3     1  UNL1        0.0188
     25 C         139.6471  145.8346  162.0090 C.3     1  UNL1        0.0730
     26 C         139.2385  144.7908  164.3528 C.3     1  UNL1        0.0730
     27 C         138.6416  143.4203  164.2289 C.3     1  UNL1        0.0188
@<TRIPOS>BOND
     1    24    25    1
     2    25    23    1
     3    23    26    1
     4    26    27    1
     5    23    22    1
     6    22    20    1
     7    20    21    3
     8    21    19    1
     9    19    18    1
    10    18    16    1
    11    16    17    2
    12    16     1    1
    13     1     2    1
    14     1     4    1
    15     4     5   ar
    16     5     6   ar
    17     6     7   ar
    18     7     8   ar
    19     8     9   ar
    20     1    10    1
    21    10    11    1
    22    11    12    1
    23    12    13    1
    24    13    14    1
    25    14    15    1
    26     9     4   ar
    27    15    10    1
    28     2     3    1
@<TRIPOS>MOLECULE
*****
 27 28 0 0 0
SMALL
GASTEIGER

@<TRIPOS>ATOM
      1 C         142.0546  139.7841  166.1643 C.3     1  UNL1        0.1960
      2 O         143.4652  139.3335  165.9259 O.3     1  UNL1       -0.3728
      3 H         144.0215  139.6032  166.6734 H       1  UNL1        0.2114
      4 C         142.4681  140.3857  167.4747 C.ar    1  UNL1        0.0119
      5 C         142.9703  141.7982  167.5262 C.ar    1  UNL1       -0.0015
      6 C         143.3839  142.3997  168.8366 C.ar    1  UNL1       -0.0002
      7 C         143.2952  141.5888  170.0954 C.ar    1  UNL1       -0.0000
      8 C         142.7930  140.1764  170.0438 C.ar    1  UNL1       -0.0002
      9 C         142.3795  139.5748  168.7335 C.ar    1  UNL1       -0.0015
     10 C         141.6410  139.1825  164.8539 C.3     1  UNL1        0.0391
     11 C         141.4829  140.0556  163.6444 C.3     1  UNL1        0.0032
     12 C         141.0693  139.4540  162.3341 C.3     1  UNL1        0.0001
     13 C         140.8137  137.9794  162.2332 C.3     1  UNL1        0.0000
     14 C         140.9718  137.1063  163.4426 C.3     1  UNL1        0.0001
     15 C         141.3854  137.7079  164.7530 C.3     1  UNL1        0.0032
     16 C         140.6439  140.2347  166.4027 C.2     1  UNL1        0.3462
     17 O         140.2790  141.6796  166.2318 O.2     1  UNL1       -0.2471
     18 O         139.5979  139.2404  166.8120 O.3     1  UNL1       -0.4319
     19 C         138.2572  139.2424  166.1395 C.3     1  UNL1        0.2843
     20 C         137.8444  140.8205  163.6216 C.1     1  UNL1       -0.0695
     21 C         138.0508  140.0315  164.8805 C.1     1  UNL1       -0.0424
     22 C         137.6380  141.6094  162.3627 C.3     1  UNL1        0.1499
     23 N         138.1973  142.9965  162.2467 N.3     1  UNL1       -0.2618
     24 C         138.4150  144.4114  164.4147 C.3     1  UNL1        0.0188
     25 C         137.6896  144.0872  163.1425 C.3     1  UNL1        0.0730
     26 C         139.2643  143.2927  161.2348 C.3     1  UNL1        0.0730
     27 C         140.7102  143.1364  161.6020 C.3     1  UNL1        0.0188
@<TRIPOS>BOND
     1    24    25    1
     2    25    23    1
     3    23    26    1
     4    26    27    1
     5    23    22    1
     6    22    20    1
     7    20    21    3
     8    21    19    1
     9    19    18    1
    10    18    16    1
    11    16    17    2
    12    16     1    1
    13     1     2    1
    14     1     4    1
    15     4     5   ar
    16     5     6   ar
    17     6     7   ar
    18     7     8   ar
    19     8     9   ar
    20     1    10    1
    21    10    11    1
    22    11    12    1
    23    12    13    1
    24    13    14    1
    25    14    15    1
    26     9     4   ar
    27    15    10    1
    28     2     3    1
@<TRIPOS>MOLECULE
*****
 27 28 0 0 0
SMALL
GASTEIGER

@<TRIPOS>ATOM
      1 C         139.9698  139.9076  167.0975 C.3     1  UNL1        0.1960
      2 O         138.7823  139.2815  167.7667 O.3     1  UNL1       -0.3728
      3 H         138.8828  139.3452  168.7293 H       1  UNL1        0.2114
      4 C         140.5545  140.2334  168.4400 C.ar    1  UNL1        0.0119
      5 C         141.8444  139.6000  168.8700 C.ar    1  UNL1       -0.0015
      6 C         142.4290  139.9258  170.2123 C.ar    1  UNL1       -0.0002
      7 C         141.7237  140.8851  171.1247 C.ar    1  UNL1       -0.0000
      8 C         140.4339  141.5185  170.6947 C.ar    1  UNL1       -0.0002
      9 C         139.8492  141.1927  169.3523 C.ar    1  UNL1       -0.0015
     10 C         139.3852  139.5818  165.7552 C.3     1  UNL1        0.0391
     11 C         139.5769  138.2161  165.1650 C.3     1  UNL1        0.0032
     12 C         138.9923  137.8903  163.8227 C.3     1  UNL1        0.0001
     13 C         138.2159  138.9301  163.0703 C.3     1  UNL1        0.0000
     14 C         138.0242  140.2958  163.6604 C.3     1  UNL1        0.0001
     15 C         138.6088  140.6216  165.0028 C.3     1  UNL1        0.0032
     16 C         141.1573  140.5336  166.4284 C.2     1  UNL1        0.3462
     17 O         141.3235  142.0244  166.4368 O.2     1  UNL1       -0.2471
     18 O         142.1788  139.6690  165.7508 O.3     1  UNL1       -0.4319
     19 C         142.6901  140.0383  164.3899 C.3     1  UNL1        0.2843
     20 C         141.1554  141.9713  162.6846 C.1     1  UNL1       -0.0695
     21 C         141.9227  141.0049  163.5373 C.1     1  UNL1       -0.0424
     22 C         140.3880  142.9378  161.8320 C.3     1  UNL1        0.1499
     23 N         139.7919  144.1700  162.4456 N.3     1  UNL1       -0.2618
     24 C         141.7511  145.4051  163.6228 C.3     1  UNL1        0.0188
     25 C         140.6315  145.4000  162.6246 C.3     1  UNL1        0.0730
     26 C         138.3563  144.1720  162.8803 C.3     1  UNL1        0.0730
     27 C         138.0147  144.2187  164.3401 C.3     1  UNL1        0.0188
@<TRIPOS>BOND
     1    24    25    1
     2    25    23    1
     3    23    26    1
     4    26    27    1
     5    23    22    1
     6    22    20    1
     7    20    21    3
     8    21    19    1
     9    19    18    1
    10    18    16    1
    11    16    17    2
    12    16     1    1
    13     1     2    1
    14     1     4    1
    15     4     5   ar
    16     5     6   ar
    17     6     7   ar
    18     7     8   ar
    19     8     9   ar
    20     1    10    1
    21    10    11    1
    22    11    12    1
    23    12    13    1
    24    13    14    1
    25    14    15    1
    26     9     4   ar
    27    15    10    1
    28     2     3    1
@<TRIPOS>MOLECULE
*****
 27 28 0 0 0
SMALL
GASTEIGER

@<TRIPOS>ATOM
      1 C         142.0578  139.7500  166.1677 C.3     1  UNL1        0.1960
      2 O         143.4641  139.2737  165.9545 O.3     1  UNL1       -0.3728
      3 H         143.5193  138.7952  165.1126 H       1  UNL1        0.2114
      4 C         141.6511  139.1335  164.8621 C.ar    1  UNL1        0.0119
      5 C         141.3777  137.6609  164.7809 C.ar    1  UNL1       -0.0015
      6 C         140.9710  137.0444  163.4754 C.ar    1  UNL1       -0.0002
      7 C         140.8377  137.9006  162.2509 C.ar    1  UNL1       -0.0000
      8 C         141.1111  139.3732  162.3321 C.ar    1  UNL1       -0.0002
      9 C         141.5178  139.9896  163.6376 C.ar    1  UNL1       -0.0015
     10 C         142.4645  140.3665  167.4732 C.3     1  UNL1        0.0391
     11 C         142.9670  141.7794  167.5112 C.3     1  UNL1        0.0032
     12 C         143.3737  142.3959  168.8168 C.3     1  UNL1        0.0001
     13 C         143.2778  141.5996  170.0844 C.3     1  UNL1        0.0000
     14 C         142.7753  140.1868  170.0464 C.3     1  UNL1        0.0001
     15 C         142.3686  139.5702  168.7408 C.3     1  UNL1        0.0032
     16 C         140.6515  140.2262  166.3808 C.2     1  UNL1        0.3462
     17 O         140.3119  141.6739  166.1834 O.2     1  UNL1       -0.2471
     18 O         139.5848  139.2548  166.7914 O.3     1  UNL1       -0.4319
     19 C         138.2577  139.2586  166.0923 C.3     1  UNL1        0.2843
     20 C         137.8850  140.8709  163.5899 C.1     1  UNL1       -0.0695
     21 C         138.0713  140.0648  164.8411 C.1     1  UNL1       -0.0424
     22 C         137.6986  141.6770  162.3388 C.3     1  UNL1        0.1499
     23 N         138.2085  143.0862  162.2716 N.3     1  UNL1       -0.2618
     24 C         140.0480  142.3985  160.5707 C.3     1  UNL1        0.0188
     25 C         139.2365  143.4637  161.2467 C.3     1  UNL1        0.0730
     26 C         137.6902  144.1177  163.2293 C.3     1  UNL1        0.0730
     27 C         138.4819  144.4690  164.4540 C.3     1  UNL1        0.0188
@<TRIPOS>BOND
     1    24    25    1
     2    25    23    1
     3    23    26    1
     4    26    27    1
     5    23    22    1
     6    22    20    1
     7    20    21    3
     8    21    19    1
     9    19    18    1
    10    18    16    1
    11    16    17    2
    12    16     1    1
    13     1     2    1
    14     1     4    1
    15     4     5   ar
    16     5     6   ar
    17     6     7   ar
    18     7     8   ar
    19     8     9   ar
    20     1    10    1
    21    10    11    1
    22    11    12    1
    23    12    13    1
    24    13    14    1
    25    14    15    1
    26     9     4   ar
    27    15    10    1
    28     2     3    1
@<TRIPOS>MOLECULE
*****
 27 28 0 0 0
SMALL
GASTEIGER

@<TRIPOS>ATOM
      1 C         141.0895  141.4495  164.3423 C.3     1  UNL1        0.1960
      2 O         141.8715  142.6325  164.8308 O.3     1  UNL1       -0.3728
      3 H         142.7381  142.3372  165.1515 H       1  UNL1        0.2114
      4 C         142.2342  140.5468  164.6955 C.ar    1  UNL1        0.0119
      5 C         142.1183  139.6094  165.8608 C.ar    1  UNL1       -0.0015
      6 C         143.2631  138.7068  166.2139 C.ar    1  UNL1       -0.0002
      7 C         144.5237  138.7415  165.4018 C.ar    1  UNL1       -0.0000
      8 C         144.6396  139.6789  164.2366 C.ar    1  UNL1       -0.0002
      9 C         143.4949  140.5815  163.8834 C.ar    1  UNL1       -0.0015
     10 C         139.9447  142.3521  163.9891 C.3     1  UNL1        0.0391
     11 C         139.2341  143.1184  165.0652 C.3     1  UNL1        0.0032
     12 C         138.0893  144.0210  164.7120 C.3     1  UNL1        0.0001
     13 C         137.6552  144.1574  163.2827 C.3     1  UNL1        0.0000
     14 C         138.3657  143.3912  162.2066 C.3     1  UNL1        0.0001
     15 C         139.5105  142.4885  162.5598 C.3     1  UNL1        0.0032
     16 C         140.3074  140.2664  163.8538 C.2     1  UNL1        0.3462
     17 O         140.9396  139.2876  162.9092 O.2     1  UNL1       -0.2471
     18 O         138.8930  140.0622  164.3098 O.3     1  UNL1       -0.4319
     19 C         138.6009  139.1446  165.4599 C.3     1  UNL1        0.2843
     20 C         139.2913  139.9791  168.2575 C.1     1  UNL1       -0.0695
     21 C         138.9461  139.5619  166.8587 C.1     1  UNL1       -0.0424
     22 C         139.6365  140.3963  169.6563 C.3     1  UNL1        0.1499
     23 N         140.9288  141.1072  169.9297 N.3     1  UNL1       -0.2618
     24 C         142.4538  139.0039  169.9121 C.3     1  UNL1        0.0188
     25 C         142.2330  140.4512  169.5854 C.3     1  UNL1        0.0730
     26 C         140.9169  142.4741  170.5472 C.3     1  UNL1        0.0730
     27 C         140.4642  143.6566  169.7429 C.3     1  UNL1        0.0188
@<TRIPOS>BOND
     1    24    25    1
     2    25    23    1
     3    23    26    1
     4    26    27    1
     5    23    22    1
     6    22    20    1
     7    20    21    3
     8    21    19    1
     9    19    18    1
    10    18    16    1
    11    16    17    2
    12    16     1    1
    13     1     2    1
    14     1     4    1
    15     4     5   ar
    16     5     6   ar
    17     6     7   ar
    18     7     8   ar
    19     8     9   ar
    20     1    10    1
    21    10    11    1
    22    11    12    1
    23    12    13    1
    24    13    14    1
    25    14    15    1
    26     9     4   ar
    27    15    10    1
    28     2     3    1
@<TRIPOS>MOLECULE
*****
 27 28 0 0 0
SMALL
GASTEIGER

@<TRIPOS>ATOM
      1 C         139.9720  139.9388  167.0820 C.3     1  UNL1        0.1960
      2 O         138.8736  139.1614  167.7446 O.3     1  UNL1       -0.3728
      3 H         138.2719  138.8118  167.0689 H       1  UNL1        0.2114
      4 C         139.3734  139.6401  165.7393 C.ar    1  UNL1        0.0119
      5 C         138.4819  140.6470  165.0749 C.ar    1  UNL1       -0.0015
      6 C         137.8834  140.3483  163.7324 C.ar    1  UNL1       -0.0002
      7 C         138.1763  139.0428  163.0542 C.ar    1  UNL1       -0.0000
      8 C         139.0678  138.0360  163.7186 C.ar    1  UNL1       -0.0002
      9 C         139.6663  138.3346  165.0612 C.ar    1  UNL1       -0.0015
     10 C         140.5706  140.2374  168.4245 C.3     1  UNL1        0.0391
     11 C         139.8406  141.1222  169.3911 C.3     1  UNL1        0.0032
     12 C         140.4392  141.4209  170.7337 C.3     1  UNL1        0.0001
     13 C         141.7678  140.8348  171.1096 C.3     1  UNL1        0.0000
     14 C         142.4978  139.9500  170.1430 C.3     1  UNL1        0.0001
     15 C         141.8992  139.6513  168.8004 C.3     1  UNL1        0.0032
     16 C         141.0704  140.7162  166.4193 C.2     1  UNL1        0.3462
     17 O         141.1049  142.2115  166.5329 O.2     1  UNL1       -0.2471
     18 O         142.1343  139.9983  165.6429 O.3     1  UNL1       -0.4319
     19 C         142.6263  140.5649  164.3441 C.3     1  UNL1        0.2843
     20 C         140.7597  142.1173  162.5818 C.1     1  UNL1       -0.0695
     21 C         141.6930  141.3411  163.4629 C.1     1  UNL1       -0.0424
     22 C         139.8264  142.8935  161.7007 C.3     1  UNL1        0.1499
     23 N         139.1688  144.1388  162.2174 N.3     1  UNL1       -0.2618
     24 C         138.0572  144.2878  164.5609 C.3     1  UNL1        0.0188
     25 C         137.9498  144.0383  163.0857 C.3     1  UNL1        0.0730
     26 C         139.7302  145.4846  161.8658 C.3     1  UNL1        0.0730
     27 C         140.2886  145.7295  160.4954 C.3     1  UNL1        0.0188
@<TRIPOS>BOND
     1    24    25    1
     2    25    23    1
     3    23    26    1
     4    26    27    1
     5    23    22    1
     6    22    20    1
     7    20    21    3
     8    21    19    1
     9    19    18    1
    10    18    16    1
    11    16    17    2
    12    16     1    1
    13     1     2    1
    14     1     4    1
    15     4     5   ar
    16     5     6   ar
    17     6     7   ar
    18     7     8   ar
    19     8     9   ar
    20     1    10    1
    21    10    11    1
    22    11    12    1
    23    12    13    1
    24    13    14    1
    25    14    15    1
    26     9     4   ar
    27    15    10    1
    28     2     3    1
