@<TRIPOS>MOLECULE
*****
 27 29 0 0 0
SMALL
GASTEIGER

@<TRIPOS>ATOM
      1 C         141.8526  139.5654  163.0702 C.ar    1  UNL1        0.1099
      2 C         141.7438  140.9598  162.5283 C.ar    1  UNL1        0.0337
      3 C         141.6968  141.9065  163.6909 C.ar    1  UNL1        0.0621
      4 C         141.5890  143.4003  163.6077 C.3     1  UNL1        0.0522
      5 N         141.7765  141.0971  164.9513 N.ar    1  UNL1       -0.2338
      6 N         141.8728  139.6502  164.5676 N.ar    1  UNL1       -0.1673
      7 C         141.7623  141.6394  166.3497 C.ar    1  UNL1        0.0848
      8 C         140.4622  142.0206  166.9932 C.ar    1  UNL1        0.0216
      9 C         140.4480  142.5628  168.3917 C.ar    1  UNL1        0.0335
     10 C         141.7341  142.7239  169.1466 C.ar    1  UNL1        0.1675
     11 F         141.7201  143.2662  170.5452 F       1  UNL1       -0.2018
     12 C         143.0344  142.3427  168.5031 C.ar    1  UNL1        0.1689
     13 F         144.3205  142.5038  169.2581 F       1  UNL1       -0.2017
     14 C         143.0485  141.8004  167.1046 C.ar    1  UNL1        0.0511
     15 C         141.9280  138.3070  162.2573 C.3     1  UNL1        0.1893
     16 O         140.6683  137.6294  161.8054 O.3     1  UNL1       -0.3458
     17 C         139.5242  137.4593  162.7605 C.3     1  UNL1        0.1600
     18 C         138.2408  138.2016  162.5332 C.3     1  UNL1        0.1047
     19 C         137.9877  144.6299  164.9544 C.3     1  UNL1        0.0948
     20 C         137.9717  144.1090  163.5478 C.2     1  UNL1        0.2262
     21 O         137.8885  145.0650  162.3950 O.2     1  UNL1       -0.2749
     22 N         138.0390  142.6322  163.2942 N.am    1  UNL1       -0.2767
     23 C         138.1222  141.6762  164.4470 C.3     1  UNL1        0.1107
     24 C         138.1895  140.1993  164.1934 C.3     1  UNL1        0.0940
     25 N         138.1735  139.6785  162.7868 N.3     1  UNL1       -0.2676
     26 C         138.0903  140.6344  161.6340 C.3     1  UNL1        0.0940
     27 C         138.0230  142.1113  161.8877 C.3     1  UNL1        0.1107
@<TRIPOS>BOND
     1    19    20    1
     2    20    21    2
     3    20    22   am
     4    22    23    1
     5    23    24    1
     6    24    25    1
     7    25    18    1
     8    18    17    1
     9    17    16    1
    10    16    15    1
    11    15     1    1
    12     1     2   ar
    13     2     3   ar
    14     3     4    1
    15     3     5   ar
    16     5     7    1
    17     7     8   ar
    18     8     9   ar
    19     9    10   ar
    20    10    11    1
    21    10    12   ar
    22    12    13    1
    23    12    14   ar
    24     5     6   ar
    25    25    26    1
    26    26    27    1
    27    27    22    1
    28     6     1   ar
    29    14     7   ar
@<TRIPOS>MOLECULE
*****
 27 29 0 0 0
SMALL
GASTEIGER

@<TRIPOS>ATOM
      1 C         141.6325  139.0338  163.6100 C.ar    1  UNL1        0.1099
      2 C         141.8391  140.5176  163.5341 C.ar    1  UNL1        0.0337
      3 C         141.6889  141.0780  164.9174 C.ar    1  UNL1        0.0621
      4 C         141.8158  142.5222  165.3022 C.3     1  UNL1        0.0522
      5 N         141.3896  139.9405  165.8483 N.ar    1  UNL1       -0.2338
      6 N         141.3547  138.6772  165.0403 N.ar    1  UNL1       -0.1673
      7 C         141.1646  140.0475  167.3274 C.ar    1  UNL1        0.0848
      8 C         139.7859  140.3039  167.8597 C.ar    1  UNL1        0.0216
      9 C         139.5609  140.4109  169.3389 C.ar    1  UNL1        0.0335
     10 C         140.7147  140.2615  170.2857 C.ar    1  UNL1        0.1675
     11 F         140.4897  140.3686  171.7649 F       1  UNL1       -0.2018
     12 C         142.0934  140.0051  169.7534 C.ar    1  UNL1        0.1689
     13 F         143.2472  139.8557  170.7003 F       1  UNL1       -0.2017
     14 C         142.3184  139.8981  168.2742 C.ar    1  UNL1        0.0511
     15 C         141.6932  138.0751  162.4580 C.3     1  UNL1        0.1893
     16 O         140.4327  137.6676  161.7543 O.3     1  UNL1       -0.3458
     17 C         139.1519  137.5387  162.5243 C.3     1  UNL1        0.1600
     18 C         137.9972  138.4452  162.2165 C.3     1  UNL1        0.1047
     19 C         138.3521  144.7145  165.0129 C.3     1  UNL1        0.0948
     20 C         138.3180  144.2800  163.5776 C.2     1  UNL1        0.2262
     21 O         138.3642  145.3041  162.4827 O.2     1  UNL1       -0.2749
     22 N         138.2378  142.8213  163.2374 N.am    1  UNL1       -0.2767
     23 C         138.1917  141.7971  164.3323 C.3     1  UNL1        0.1107
     24 C         138.1115  140.3385  163.9920 C.3     1  UNL1        0.0940
     25 N         138.0774  139.9039  162.5568 N.3     1  UNL1       -0.2676
     26 C         138.1235  140.9280  161.4618 C.3     1  UNL1        0.0940
     27 C         138.2038  142.3867  161.8021 C.3     1  UNL1        0.1107
@<TRIPOS>BOND
     1    19    20    1
     2    20    21    2
     3    20    22   am
     4    22    23    1
     5    23    24    1
     6    24    25    1
     7    25    18    1
     8    18    17    1
     9    17    16    1
    10    16    15    1
    11    15     1    1
    12     1     2   ar
    13     2     3   ar
    14     3     4    1
    15     3     5   ar
    16     5     7    1
    17     7     8   ar
    18     8     9   ar
    19     9    10   ar
    20    10    11    1
    21    10    12   ar
    22    12    13    1
    23    12    14   ar
    24     5     6   ar
    25    25    26    1
    26    26    27    1
    27    27    22    1
    28     6     1   ar
    29    14     7   ar
@<TRIPOS>MOLECULE
*****
 27 29 0 0 0
SMALL
GASTEIGER

@<TRIPOS>ATOM
      1 C         140.1992  138.5036  163.7230 C.ar    1  UNL1        0.1099
      2 C         139.0066  138.1282  164.5517 C.ar    1  UNL1        0.0337
      3 C         139.0789  138.8918  165.8408 C.ar    1  UNL1        0.0621
      4 C         138.0879  138.8206  166.9645 C.3     1  UNL1        0.0522
      5 N         140.3162  139.7392  165.8088 N.ar    1  UNL1       -0.2338
      6 N         141.0086  139.4992  164.4999 N.ar    1  UNL1       -0.1673
      7 C         140.7798  140.6641  166.8949 C.ar    1  UNL1        0.0848
      8 C         140.1079  141.9912  167.0873 C.ar    1  UNL1        0.0216
      9 C         140.5715  142.9161  168.1734 C.ar    1  UNL1        0.0335
     10 C         141.7070  142.5138  169.0671 C.ar    1  UNL1        0.1675
     11 F         142.1707  143.4387  170.1532 F       1  UNL1       -0.2018
     12 C         142.3790  141.1866  168.8746 C.ar    1  UNL1        0.1689
     13 F         143.5146  140.7843  169.7683 F       1  UNL1       -0.2017
     14 C         141.9154  140.2617  167.7885 C.ar    1  UNL1        0.0511
     15 C         140.5252  137.9760  162.3572 C.3     1  UNL1        0.1893
     16 O         139.4211  137.6589  161.3925 O.3     1  UNL1       -0.3458
     17 C         138.8583  138.7381  160.5158 C.3     1  UNL1        0.1600
     18 C         137.8275  139.6834  161.0578 C.3     1  UNL1        0.1047
     19 C         138.6318  144.9077  165.4521 C.3     1  UNL1        0.0948
     20 C         139.5220  144.4000  164.3568 C.2     1  UNL1        0.2262
     21 O         140.8357  145.0713  164.0862 O.2     1  UNL1       -0.2749
     22 N         139.0984  143.2208  163.5320 N.am    1  UNL1       -0.2767
     23 C         137.7846  142.5495  163.8026 C.3     1  UNL1        0.1107
     24 C         137.3610  141.3703  162.9779 C.3     1  UNL1        0.0940
     25 N         138.2512  140.8625  161.8826 N.3     1  UNL1       -0.2676
     26 C         139.5649  141.5339  161.6120 C.3     1  UNL1        0.0940
     27 C         139.9885  142.7130  162.4367 C.3     1  UNL1        0.1107
@<TRIPOS>BOND
     1    19    20    1
     2    20    21    2
     3    20    22   am
     4    22    23    1
     5    23    24    1
     6    24    25    1
     7    25    18    1
     8    18    17    1
     9    17    16    1
    10    16    15    1
    11    15     1    1
    12     1     2   ar
    13     2     3   ar
    14     3     4    1
    15     3     5   ar
    16     5     7    1
    17     7     8   ar
    18     8     9   ar
    19     9    10   ar
    20    10    11    1
    21    10    12   ar
    22    12    13    1
    23    12    14   ar
    24     5     6   ar
    25    25    26    1
    26    26    27    1
    27    27    22    1
    28     6     1   ar
    29    14     7   ar
@<TRIPOS>MOLECULE
*****
 27 29 0 0 0
SMALL
GASTEIGER

@<TRIPOS>ATOM
      1 C         140.0348  138.6291  163.6006 C.ar    1  UNL1        0.1099
      2 C         138.8738  138.2620  164.4765 C.ar    1  UNL1        0.0337
      3 C         139.0563  138.9458  165.7990 C.ar    1  UNL1        0.0621
      4 C         138.1279  138.8557  166.9737 C.3     1  UNL1        0.0522
      5 N         140.3302  139.7357  165.7405 N.ar    1  UNL1       -0.2338
      6 N         140.9349  139.5399  164.3818 N.ar    1  UNL1       -0.1673
      7 C         140.8994  140.5740  166.8464 C.ar    1  UNL1        0.0848
      8 C         142.1602  140.1477  167.5379 C.ar    1  UNL1        0.0216
      9 C         142.7294  140.9860  168.6439 C.ar    1  UNL1        0.0335
     10 C         142.0377  142.2508  169.0583 C.ar    1  UNL1        0.1675
     11 F         142.6068  143.0893  170.1643 F       1  UNL1       -0.2018
     12 C         140.7767  142.6772  168.3668 C.ar    1  UNL1        0.1689
     13 F         140.0849  143.9421  168.7812 F       1  UNL1       -0.2017
     14 C         140.2075  141.8388  167.2608 C.ar    1  UNL1        0.0511
     15 C         140.2568  138.1667  162.1910 C.3     1  UNL1        0.1893
     16 O         141.4658  137.3458  161.8526 O.3     1  UNL1       -0.3458
     17 C         142.6140  137.9699  161.1162 C.3     1  UNL1        0.1600
     18 C         143.8513  138.3751  161.8610 C.3     1  UNL1        0.1047
     19 C         143.4794  144.9287  163.9012 C.3     1  UNL1        0.0948
     20 C         144.1165  143.7339  164.5466 C.2     1  UNL1        0.2262
     21 O         144.8200  143.8789  165.8634 O.2     1  UNL1       -0.2749
     22 N         144.0502  142.3942  163.8752 N.am    1  UNL1       -0.2767
     23 C         143.3467  142.2492  162.5584 C.3     1  UNL1        0.1107
     24 C         143.2804  140.9095  161.8870 C.3     1  UNL1        0.0940
     25 N         143.9176  139.7148  162.5324 N.3     1  UNL1       -0.2676
     26 C         144.6211  139.8598  163.8492 C.3     1  UNL1        0.0940
     27 C         144.6874  141.1995  164.5206 C.3     1  UNL1        0.1107
@<TRIPOS>BOND
     1    19    20    1
     2    20    21    2
     3    20    22   am
     4    22    23    1
     5    23    24    1
     6    24    25    1
     7    25    18    1
     8    18    17    1
     9    17    16    1
    10    16    15    1
    11    15     1    1
    12     1     2   ar
    13     2     3   ar
    14     3     4    1
    15     3     5   ar
    16     5     7    1
    17     7     8   ar
    18     8     9   ar
    19     9    10   ar
    20    10    11    1
    21    10    12   ar
    22    12    13    1
    23    12    14   ar
    24     5     6   ar
    25    25    26    1
    26    26    27    1
    27    27    22    1
    28     6     1   ar
    29    14     7   ar
@<TRIPOS>MOLECULE
*****
 27 29 0 0 0
SMALL
GASTEIGER

@<TRIPOS>ATOM
      1 C         138.6436  143.2530  164.7646 C.ar    1  UNL1        0.1099
      2 C         138.0228  141.9441  164.3758 C.ar    1  UNL1        0.0337
      3 C         138.6141  140.8742  165.2451 C.ar    1  UNL1        0.0621
      4 C         138.2781  139.4131  165.1967 C.3     1  UNL1        0.0522
      5 N         139.6004  141.5219  166.1712 N.ar    1  UNL1       -0.2338
      6 N         139.6186  142.9921  165.8742 N.ar    1  UNL1       -0.1673
      7 C         140.4239  140.8223  167.2115 C.ar    1  UNL1        0.0848
      8 C         141.8064  140.3455  166.8779 C.ar    1  UNL1        0.0216
      9 C         142.6299  139.6459  167.9183 C.ar    1  UNL1        0.0335
     10 C         142.0708  139.4231  169.2923 C.ar    1  UNL1        0.1675
     11 F         142.8943  138.7234  170.3327 F       1  UNL1       -0.2018
     12 C         140.6883  139.8999  169.6259 C.ar    1  UNL1        0.1689
     13 F         140.1292  139.6770  170.9999 F       1  UNL1       -0.2017
     14 C         139.8648  140.5995  168.5855 C.ar    1  UNL1        0.0511
     15 C         138.3423  144.5885  164.1515 C.3     1  UNL1        0.1893
     16 O         138.2514  144.7258  162.6605 O.3     1  UNL1       -0.3458
     17 C         139.4274  145.2355  161.8812 C.3     1  UNL1        0.1600
     18 C         140.7268  145.5104  162.5783 C.3     1  UNL1        0.1047
     19 C         144.4733  139.7539  162.8553 C.3     1  UNL1        0.0948
     20 C         144.8691  141.1918  163.0157 C.2     1  UNL1        0.2262
     21 O         146.3004  141.5500  163.2854 O.2     1  UNL1       -0.2749
     22 N         143.8335  142.2714  162.9063 N.am    1  UNL1       -0.2767
     23 C         142.4021  141.9132  162.6366 C.3     1  UNL1        0.1107
     24 C         141.3666  142.9929  162.5272 C.3     1  UNL1        0.0940
     25 N         141.7624  144.4308  162.6877 N.3     1  UNL1       -0.2676
     26 C         143.1938  144.7890  162.9574 C.3     1  UNL1        0.0940
     27 C         144.2293  143.7093  163.0667 C.3     1  UNL1        0.1107
@<TRIPOS>BOND
     1    19    20    1
     2    20    21    2
     3    20    22   am
     4    22    23    1
     5    23    24    1
     6    24    25    1
     7    25    18    1
     8    18    17    1
     9    17    16    1
    10    16    15    1
    11    15     1    1
    12     1     2   ar
    13     2     3   ar
    14     3     4    1
    15     3     5   ar
    16     5     7    1
    17     7     8   ar
    18     8     9   ar
    19     9    10   ar
    20    10    11    1
    21    10    12   ar
    22    12    13    1
    23    12    14   ar
    24     5     6   ar
    25    25    26    1
    26    26    27    1
    27    27    22    1
    28     6     1   ar
    29    14     7   ar
@<TRIPOS>MOLECULE
*****
 27 29 0 0 0
SMALL
GASTEIGER

@<TRIPOS>ATOM
      1 C         138.7208  141.4518  163.6343 C.ar    1  UNL1        0.1099
      2 C         140.0325  140.7434  163.4685 C.ar    1  UNL1        0.0337
      3 C         140.6675  140.6207  164.8219 C.ar    1  UNL1        0.0621
      4 C         141.9896  139.9782  165.1206 C.3     1  UNL1        0.0522
      5 N         139.7482  141.2534  165.8243 N.ar    1  UNL1       -0.2338
      6 N         138.5451  141.7670  165.0903 N.ar    1  UNL1       -0.1673
      7 C         139.9896  141.3547  167.3012 C.ar    1  UNL1        0.0848
      8 C         139.6589  140.1974  168.1963 C.ar    1  UNL1        0.0216
      9 C         139.9003  140.2987  169.6733 C.ar    1  UNL1        0.0335
     10 C         140.4724  141.5573  170.2551 C.ar    1  UNL1        0.1675
     11 F         140.7138  141.6586  171.7322 F       1  UNL1       -0.2018
     12 C         140.8031  142.7146  169.3600 C.ar    1  UNL1        0.1689
     13 F         141.3752  143.9733  169.9419 F       1  UNL1       -0.2017
     14 C         140.5617  142.6134  167.8830 C.ar    1  UNL1        0.0511
     15 C         137.7545  141.7863  162.5369 C.3     1  UNL1        0.1893
     16 O         137.7320  143.1677  161.9527 O.3     1  UNL1       -0.3458
     17 C         137.9278  144.3608  162.8405 C.3     1  UNL1        0.1600
     18 C         139.2025  145.1482  162.7684 C.3     1  UNL1        0.1047
     19 C         145.2087  142.1980  164.3404 C.3     1  UNL1        0.0948
     20 C         144.4910  142.3263  163.0296 C.2     1  UNL1        0.2262
     21 O         145.0954  141.7491  161.7840 O.2     1  UNL1       -0.2749
     22 N         143.1688  143.0318  162.9643 N.am    1  UNL1       -0.2767
     23 C         142.5644  143.6090  164.2098 C.3     1  UNL1        0.1107
     24 C         141.2423  144.3145  164.1445 C.3     1  UNL1        0.0940
     25 N         140.5246  144.4427  162.8337 N.3     1  UNL1       -0.2676
     26 C         141.1290  143.8655  161.5881 C.3     1  UNL1        0.0940
     27 C         142.4511  143.1601  161.6534 C.3     1  UNL1        0.1107
@<TRIPOS>BOND
     1    19    20    1
     2    20    21    2
     3    20    22   am
     4    22    23    1
     5    23    24    1
     6    24    25    1
     7    25    18    1
     8    18    17    1
     9    17    16    1
    10    16    15    1
    11    15     1    1
    12     1     2   ar
    13     2     3   ar
    14     3     4    1
    15     3     5   ar
    16     5     7    1
    17     7     8   ar
    18     8     9   ar
    19     9    10   ar
    20    10    11    1
    21    10    12   ar
    22    12    13    1
    23    12    14   ar
    24     5     6   ar
    25    25    26    1
    26    26    27    1
    27    27    22    1
    28     6     1   ar
    29    14     7   ar
@<TRIPOS>MOLECULE
*****
 27 29 0 0 0
SMALL
GASTEIGER

@<TRIPOS>ATOM
      1 C         138.2078  141.4760  163.5313 C.ar    1  UNL1        0.1099
      2 C         137.8795  142.9112  163.8181 C.ar    1  UNL1        0.0337
      3 C         138.8206  143.3989  164.8795 C.ar    1  UNL1        0.0621
      4 C         138.8471  144.7783  165.4682 C.3     1  UNL1        0.0522
      5 N         139.7306  142.2650  165.2487 N.ar    1  UNL1       -0.2338
      6 N         139.3518  141.0766  164.4154 N.ar    1  UNL1       -0.1673
      7 C         140.8268  142.3114  166.2715 C.ar    1  UNL1        0.0848
      8 C         142.2614  142.2697  165.8357 C.ar    1  UNL1        0.0216
      9 C         143.3576  142.3161  166.8585 C.ar    1  UNL1        0.0335
     10 C         143.0191  142.4041  168.3171 C.ar    1  UNL1        0.1675
     11 F         144.1153  142.4505  169.3401 F       1  UNL1       -0.2018
     12 C         141.5844  142.4458  168.7530 C.ar    1  UNL1        0.1689
     13 F         141.2459  142.5339  170.2117 F       1  UNL1       -0.2017
     14 C         140.4882  142.3995  167.7301 C.ar    1  UNL1        0.0511
     15 C         137.5140  140.5948  162.5352 C.3     1  UNL1        0.1893
     16 O         137.9904  140.5500  161.1136 O.3     1  UNL1       -0.3458
     17 C         138.4554  139.2537  160.5190 C.3     1  UNL1        0.1600
     18 C         138.9331  138.1475  161.4122 C.3     1  UNL1        0.1047
     19 C         144.8952  139.8579  164.3749 C.3     1  UNL1        0.0948
     20 C         143.7986  138.9422  164.8320 C.2     1  UNL1        0.2262
     21 O         143.9184  138.2252  166.1440 O.2     1  UNL1       -0.2749
     22 N         142.5823  138.7435  163.9770 N.am    1  UNL1       -0.2767
     23 C         142.4625  139.4605  162.6650 C.3     1  UNL1        0.1107
     24 C         141.2461  139.2618  161.8100 C.3     1  UNL1        0.0940
     25 N         140.1495  138.3461  162.2671 N.3     1  UNL1       -0.2676
     26 C         140.2693  137.6292  163.5792 C.3     1  UNL1        0.0940
     27 C         141.4857  137.8279  164.4341 C.3     1  UNL1        0.1107
@<TRIPOS>BOND
     1    19    20    1
     2    20    21    2
     3    20    22   am
     4    22    23    1
     5    23    24    1
     6    24    25    1
     7    25    18    1
     8    18    17    1
     9    17    16    1
    10    16    15    1
    11    15     1    1
    12     1     2   ar
    13     2     3   ar
    14     3     4    1
    15     3     5   ar
    16     5     7    1
    17     7     8   ar
    18     8     9   ar
    19     9    10   ar
    20    10    11    1
    21    10    12   ar
    22    12    13    1
    23    12    14   ar
    24     5     6   ar
    25    25    26    1
    26    26    27    1
    27    27    22    1
    28     6     1   ar
    29    14     7   ar
@<TRIPOS>MOLECULE
*****
 27 29 0 0 0
SMALL
GASTEIGER

@<TRIPOS>ATOM
      1 C         142.6936  144.1018  164.2285 C.ar    1  UNL1        0.1099
      2 C         141.2959  144.5640  163.9406 C.ar    1  UNL1        0.0337
      3 C         140.3856  143.9539  164.9648 C.ar    1  UNL1        0.0621
      4 C         138.9009  144.1489  165.0526 C.3     1  UNL1        0.0522
      5 N         141.2207  143.1145  165.8858 N.ar    1  UNL1       -0.2338
      6 N         142.6470  143.2059  165.4307 N.ar    1  UNL1       -0.1673
      7 C         140.7177  142.3228  167.0563 C.ar    1  UNL1        0.0848
      8 C         140.4466  140.8550  166.9081 C.ar    1  UNL1        0.0216
      9 C         139.9437  140.0632  168.0786 C.ar    1  UNL1        0.0335
     10 C         139.7117  140.7394  169.3973 C.ar    1  UNL1        0.1675
     11 F         139.2087  139.9476  170.5679 F       1  UNL1       -0.2018
     12 C         139.9827  142.2072  169.5455 C.ar    1  UNL1        0.1689
     13 F         139.7507  142.8834  170.8643 F       1  UNL1       -0.2017
     14 C         140.4857  142.9990  168.3750 C.ar    1  UNL1        0.0511
     15 C         143.9220  144.4706  163.4508 C.3     1  UNL1        0.1893
     16 O         143.9759  144.2235  161.9722 O.3     1  UNL1       -0.3458
     17 C         144.4902  142.9153  161.4486 C.3     1  UNL1        0.1600
     18 C         143.5401  141.9224  160.8476 C.3     1  UNL1        0.1047
     19 C         138.0394  140.0837  164.5369 C.3     1  UNL1        0.0948
     20 C         138.1698  141.0070  163.3620 C.2     1  UNL1        0.2262
     21 O         136.9577  141.7014  162.8157 O.2     1  UNL1       -0.2749
     22 N         139.5124  141.2358  162.7334 N.am    1  UNL1       -0.2767
     23 C         140.7245  140.5414  163.2797 C.3     1  UNL1        0.1107
     24 C         142.0670  140.7703  162.6511 C.3     1  UNL1        0.0940
     25 N         142.1975  141.6936  161.4762 N.3     1  UNL1       -0.2676
     26 C         140.9854  142.3880  160.9299 C.3     1  UNL1        0.0940
     27 C         139.6428  142.1591  161.5585 C.3     1  UNL1        0.1107
@<TRIPOS>BOND
     1    19    20    1
     2    20    21    2
     3    20    22   am
     4    22    23    1
     5    23    24    1
     6    24    25    1
     7    25    18    1
     8    18    17    1
     9    17    16    1
    10    16    15    1
    11    15     1    1
    12     1     2   ar
    13     2     3   ar
    14     3     4    1
    15     3     5   ar
    16     5     7    1
    17     7     8   ar
    18     8     9   ar
    19     9    10   ar
    20    10    11    1
    21    10    12   ar
    22    12    13    1
    23    12    14   ar
    24     5     6   ar
    25    25    26    1
    26    26    27    1
    27    27    22    1
    28     6     1   ar
    29    14     7   ar
@<TRIPOS>MOLECULE
*****
 27 29 0 0 0
SMALL
GASTEIGER

@<TRIPOS>ATOM
      1 C         142.4102  144.1497  164.2514 C.ar    1  UNL1        0.1099
      2 C         141.1144  144.8803  164.0589 C.ar    1  UNL1        0.0337
      3 C         140.0047  143.9886  164.5315 C.ar    1  UNL1        0.0621
      4 C         138.5419  144.3203  164.5212 C.3     1  UNL1        0.0522
      5 N         140.6147  142.7068  165.0161 N.ar    1  UNL1       -0.2338
      6 N         142.1014  142.8064  164.8430 N.ar    1  UNL1       -0.1673
      7 C         139.8690  141.5316  165.5756 C.ar    1  UNL1        0.0848
      8 C         138.9672  140.7247  164.6895 C.ar    1  UNL1        0.0216
      9 C         138.2216  139.5496  165.2490 C.ar    1  UNL1        0.0335
     10 C         138.3777  139.1815  166.6947 C.ar    1  UNL1        0.1675
     11 F         137.6320  138.0063  167.2543 F       1  UNL1       -0.2018
     12 C         139.2796  139.9885  167.5809 C.ar    1  UNL1        0.1689
     13 F         139.4358  139.6204  169.0267 F       1  UNL1       -0.2017
     14 C         140.0253  141.1636  167.0214 C.ar    1  UNL1        0.0511
     15 C         143.7752  144.6710  163.9120 C.3     1  UNL1        0.1893
     16 O         144.2334  144.6994  162.4839 O.3     1  UNL1       -0.3458
     17 C         144.4657  143.4148  161.7451 C.3     1  UNL1        0.1600
     18 C         143.4241  142.8946  160.7994 C.3     1  UNL1        0.1047
     19 C         138.7146  138.0203  161.9448 C.3     1  UNL1        0.0948
     20 C         140.1778  138.0681  162.2715 C.2     1  UNL1        0.2262
     21 O         140.8294  136.9094  162.9661 O.2     1  UNL1       -0.2749
     22 N         140.9894  139.2747  161.9034 N.am    1  UNL1       -0.2767
     23 C         140.3378  140.4335  161.2087 C.3     1  UNL1        0.1107
     24 C         141.1493  141.6401  160.8407 C.3     1  UNL1        0.0940
     25 N         142.6125  141.6880  161.1674 N.3     1  UNL1       -0.2676
     26 C         143.2641  140.5292  161.8621 C.3     1  UNL1        0.0940
     27 C         142.4525  139.3226  162.2301 C.3     1  UNL1        0.1107
@<TRIPOS>BOND
     1    19    20    1
     2    20    21    2
     3    20    22   am
     4    22    23    1
     5    23    24    1
     6    24    25    1
     7    25    18    1
     8    18    17    1
     9    17    16    1
    10    16    15    1
    11    15     1    1
    12     1     2   ar
    13     2     3   ar
    14     3     4    1
    15     3     5   ar
    16     5     7    1
    17     7     8   ar
    18     8     9   ar
    19     9    10   ar
    20    10    11    1
    21    10    12   ar
    22    12    13    1
    23    12    14   ar
    24     5     6   ar
    25    25    26    1
    26    26    27    1
    27    27    22    1
    28     6     1   ar
    29    14     7   ar
