@<TRIPOS>MOLECULE
*****
 40 45 0 0 0
SMALL
GASTEIGER

@<TRIPOS>ATOM
      1 C         141.8242  138.9933  159.6972 C.ar    1  UNL1        0.1319
      2 C         141.3767  140.0837  158.7695 C.ar    1  UNL1        0.0343
      3 C         141.5600  139.9308  157.2886 C.ar    1  UNL1        0.0046
      4 C         142.1908  138.6874  156.7355 C.ar    1  UNL1        0.0239
      5 C         142.6383  137.5970  157.6631 C.ar    1  UNL1        0.1358
      6 N         142.4550  137.7499  159.1440 N.ar    1  UNL1       -0.2261
      7 C         139.2639  138.1145  160.9904 C.3     1  UNL1        0.0233
      8 C         140.3608  138.7068  161.8247 C.3     1  UNL1        0.0939
      9 C         140.1775  138.8598  163.3055 C.3     1  UNL1        0.1106
     10 N         141.2744  139.4522  164.1398 N.pl3   1  UNL1       -0.3029
     11 C         142.5545  139.8916  163.4932 C.3     1  UNL1        0.1123
     12 C         142.7378  139.7386  162.0123 C.3     1  UNL1        0.1135
     13 N         141.6409  139.1462  161.1781 N.pl3   1  UNL1       -0.2914
     14 C         141.0911  139.6052  165.6207 C.ar    1  UNL1        0.0674
     15 C         139.7282  139.8811  166.1832 C.ar    1  UNL1        0.0174
     16 C         139.5448  140.0340  167.6640 C.ar    1  UNL1        0.0183
     17 C         140.7244  139.9111  168.5825 C.ar    1  UNL1        0.0831
     18 N         142.0873  139.6352  168.0200 N.ar    1  UNL1       -0.2446
     19 C         142.2706  139.4822  166.5391 C.ar    1  UNL1        0.1130
     20 C         140.5410  140.0640  170.0633 C.3     1  UNL1        0.1232
     21 C         141.9646  139.6456  170.2828 C.3     1  UNL1        0.0355
     22 C         139.1174  140.4825  169.8438 C.3     1  UNL1        0.0355
     23 O         140.3577  140.2170  171.5442 O.3     1  UNL1       -0.3812
     24 H         141.1861  139.9948  171.9972 H       1  UNL1        0.2107
     25 C         143.2691  136.3535  157.1099 C.2     1  UNL1        0.2636
     26 O         144.2281  136.4468  155.9603 O.2     1  UNL1       -0.2685
     27 N         142.9410  135.0169  157.7063 N.am    1  UNL1       -0.3013
     28 H         142.3116  134.9557  158.4609 H       1  UNL1        0.1497
     29 C         143.5718  133.7735  157.1531 C.3     1  UNL1        0.0719
     30 C         143.1270  133.2334  155.8262 C.3     1  UNL1        0.0203
     31 C         144.2025  132.5301  156.5998 C.3     1  UNL1        0.0018
     32 C         144.8333  131.2867  156.0466 C.3     1  UNL1        0.0024
     33 C         145.2781  131.8268  157.3734 C.3     1  UNL1        0.0018
     34 C         144.6474  133.0702  157.9266 C.3     1  UNL1        0.0203
     35 C         144.1907  131.3557  155.1588 C.3     1  UNL1        0.0285
     36 C         143.3129  131.4500  153.9462 C.3     1  UNL1        0.0884
     37 O         142.8681  130.9099  152.6193 O.3     1  UNL1       -0.3867
     38 C         144.3885  130.7467  154.7197 C.3     1  UNL1        0.0269
     39 C         142.6822  132.6933  154.4994 C.3     1  UNL1        0.0285
     40 H         143.3729  130.1082  152.4109 H       1  UNL1        0.2102
@<TRIPOS>BOND
     1     8     7    1
     2     8     9    1
     3     9    10    1
     4    10    14    1
     5    14    15   ar
     6    15    16   ar
     7    16    17   ar
     8    17    20    1
     9    20    21    1
    10    20    22    1
    11    20    23    1
    12    17    18   ar
    13    18    19   ar
    14    10    11    1
    15    11    12    1
    16    12    13    1
    17    13     1    1
    18     1     2   ar
    19     2     3   ar
    20     3     4   ar
    21     4     5   ar
    22     5    25    1
    23    25    26    2
    24    25    27   am
    25    27    29    1
    26    29    30    1
    27    30    31    1
    28    31    32    1
    29    32    33    1
    30    33    34    1
    31    34    35    1
    32    35    36    1
    33    36    37    1
    34    36    38    1
    35    36    39    1
    36     5     6   ar
    37    13     8    1
    38     6     1   ar
    39    19    14   ar
    40    34    29    1
    41    39    30    1
    42    38    32    1
    43    23    24    1
    44    27    28    1
    45    37    40    1
@<TRIPOS>MOLECULE
*****
 40 45 0 0 0
SMALL
GASTEIGER

@<TRIPOS>ATOM
      1 C         143.1717  140.9771  160.5379 C.ar    1  UNL1        0.1319
      2 C         143.8969  142.0733  159.8151 C.ar    1  UNL1        0.0343
      3 C         144.2198  141.9251  158.3578 C.ar    1  UNL1        0.0046
      4 C         143.8176  140.6807  157.6234 C.ar    1  UNL1        0.0239
      5 C         143.0924  139.5844  158.3461 C.ar    1  UNL1        0.1358
      6 N         142.7695  139.7326  159.8034 N.ar    1  UNL1       -0.2261
      7 C         140.5299  142.1226  161.3800 C.3     1  UNL1        0.0233
      8 C         141.5279  141.6981  162.4163 C.3     1  UNL1        0.0939
      9 C         141.2050  141.8463  163.8735 C.3     1  UNL1        0.1106
     10 N         142.2030  141.4218  164.9098 N.pl3   1  UNL1       -0.3029
     11 C         143.5238  140.8491  164.4888 C.3     1  UNL1        0.1123
     12 C         143.8467  140.7009  163.0315 C.3     1  UNL1        0.1135
     13 N         142.8487  141.1254  161.9953 N.pl3   1  UNL1       -0.2914
     14 C         141.8801  141.5701  166.3672 C.ar    1  UNL1        0.0674
     15 C         142.9043  142.1302  167.3091 C.ar    1  UNL1        0.0174
     16 C         142.5814  142.2785  168.7664 C.ar    1  UNL1        0.0183
     17 C         141.2342  141.8667  169.2818 C.ar    1  UNL1        0.0831
     18 N         140.2100  141.3066  168.3399 N.ar    1  UNL1       -0.2446
     19 C         140.5329  141.1583  166.8825 C.ar    1  UNL1        0.1130
     20 C         140.9114  142.0149  170.7391 C.3     1  UNL1        0.1232
     21 C         139.9260  143.0971  170.4107 C.3     1  UNL1        0.0355
     22 C         141.8968  140.9328  171.0675 C.3     1  UNL1        0.0355
     23 O         140.5885  142.1632  172.1964 O.3     1  UNL1       -0.3812
     24 H         139.9181  142.8549  172.3103 H       1  UNL1        0.2107
     25 C         142.6902  138.3399  157.6116 C.2     1  UNL1        0.2636
     26 O         141.2583  137.8933  157.6208 O.2     1  UNL1       -0.2685
     27 N         143.7199  137.5422  156.8678 N.am    1  UNL1       -0.3013
     28 H         144.6597  137.8353  156.8617 H       1  UNL1        0.1497
     29 C         143.3176  136.2977  156.1332 C.3     1  UNL1        0.0719
     30 C         143.3609  134.9693  156.8286 C.3     1  UNL1        0.0203
     31 C         142.9155  135.0532  155.3987 C.3     1  UNL1        0.0018
     32 C         142.5133  133.8088  154.6642 C.3     1  UNL1        0.0024
     33 C         142.4700  135.1371  153.9689 C.3     1  UNL1        0.0018
     34 C         142.8722  136.3816  154.7034 C.3     1  UNL1        0.0203
     35 C         142.7198  133.2118  155.5624 C.3     1  UNL1        0.0285
     36 C         143.0019  132.3964  156.7894 C.3     1  UNL1        0.0884
     37 O         143.0452  131.0680  157.4848 O.3     1  UNL1       -0.3867
     38 C         142.5565  132.4804  155.3596 C.3     1  UNL1        0.0269
     39 C         143.4041  133.6409  157.5239 C.3     1  UNL1        0.0285
     40 H         142.7561  130.3732  156.8728 H       1  UNL1        0.2102
@<TRIPOS>BOND
     1     8     7    1
     2     8     9    1
     3     9    10    1
     4    10    14    1
     5    14    15   ar
     6    15    16   ar
     7    16    17   ar
     8    17    20    1
     9    20    21    1
    10    20    22    1
    11    20    23    1
    12    17    18   ar
    13    18    19   ar
    14    10    11    1
    15    11    12    1
    16    12    13    1
    17    13     1    1
    18     1     2   ar
    19     2     3   ar
    20     3     4   ar
    21     4     5   ar
    22     5    25    1
    23    25    26    2
    24    25    27   am
    25    27    29    1
    26    29    30    1
    27    30    31    1
    28    31    32    1
    29    32    33    1
    30    33    34    1
    31    34    35    1
    32    35    36    1
    33    36    37    1
    34    36    38    1
    35    36    39    1
    36     5     6   ar
    37    13     8    1
    38     6     1   ar
    39    19    14   ar
    40    34    29    1
    41    39    30    1
    42    38    32    1
    43    23    24    1
    44    27    28    1
    45    37    40    1
@<TRIPOS>MOLECULE
*****
 40 45 0 0 0
SMALL
GASTEIGER

@<TRIPOS>ATOM
      1 C         139.1899  140.4021  159.9056 C.ar    1  UNL1        0.1319
      2 C         138.4811  141.4596  159.1122 C.ar    1  UNL1        0.0343
      3 C         138.3207  141.3032  157.6291 C.ar    1  UNL1        0.0046
      4 C         138.8691  140.0893  156.9393 C.ar    1  UNL1        0.0239
      5 C         139.5779  139.0319  157.7327 C.ar    1  UNL1        0.1358
      6 N         139.7383  139.1883  159.2158 N.ar    1  UNL1       -0.2261
      7 C         137.6946  138.5940  161.7751 C.3     1  UNL1        0.0233
      8 C         138.6026  139.6546  162.3235 C.3     1  UNL1        0.0939
      9 C         138.7630  139.8110  163.8067 C.3     1  UNL1        0.1106
     10 N         139.6710  140.8716  164.3551 N.pl3   1  UNL1       -0.3029
     11 C         140.4187  141.7756  163.4204 C.3     1  UNL1        0.1123
     12 C         140.2583  141.6191  161.9373 C.3     1  UNL1        0.1135
     13 N         139.3502  140.5586  161.3888 N.pl3   1  UNL1       -0.2914
     14 C         139.8314  141.0280  165.8383 C.ar    1  UNL1        0.0674
     15 C         140.3812  142.3044  166.4027 C.ar    1  UNL1        0.0174
     16 C         140.5416  142.4609  167.8858 C.ar    1  UNL1        0.0183
     17 C         140.1522  141.3410  168.8047 C.ar    1  UNL1        0.0831
     18 N         139.6024  140.0646  168.2403 N.ar    1  UNL1       -0.2446
     19 C         139.4420  139.9081  166.7571 C.ar    1  UNL1        0.1130
     20 C         140.3126  141.4975  170.2878 C.3     1  UNL1        0.1232
     21 C         140.3884  140.0068  170.4369 C.3     1  UNL1        0.0355
     22 C         140.2367  142.9881  170.1387 C.3     1  UNL1        0.0355
     23 O         140.4730  141.6540  171.7709 O.3     1  UNL1       -0.3812
     24 H         140.5538  140.7789  172.1815 H       1  UNL1        0.2107
     25 C         140.1263  137.8180  157.0429 C.2     1  UNL1        0.2636
     26 O         139.2030  136.8913  156.3087 O.2     1  UNL1       -0.2685
     27 N         141.5978  137.5308  157.0872 N.am    1  UNL1       -0.3013
     28 H         142.2038  138.1390  157.5690 H       1  UNL1        0.1497
     29 C         142.1462  136.3169  156.3973 C.3     1  UNL1        0.0719
     30 C         142.8277  135.2448  157.1949 C.3     1  UNL1        0.0203
     31 C         142.6946  135.1031  155.7076 C.3     1  UNL1        0.0018
     32 C         143.2430  133.8892  155.0178 C.3     1  UNL1        0.0024
     33 C         142.5615  134.9614  154.2203 C.3     1  UNL1        0.0018
     34 C         142.0131  136.1752  154.9100 C.3     1  UNL1        0.0203
     35 C         143.5873  133.4960  155.9835 C.3     1  UNL1        0.0285
     36 C         144.0576  132.9588  157.3027 C.3     1  UNL1        0.0884
     37 O         144.7390  131.8867  158.1003 O.3     1  UNL1       -0.3867
     38 C         143.9245  132.8171  155.8154 C.3     1  UNL1        0.0269
     39 C         143.5092  134.1726  157.9925 C.3     1  UNL1        0.0285
     40 H         145.0321  131.1784  157.5058 H       1  UNL1        0.2102
@<TRIPOS>BOND
     1     8     7    1
     2     8     9    1
     3     9    10    1
     4    10    14    1
     5    14    15   ar
     6    15    16   ar
     7    16    17   ar
     8    17    20    1
     9    20    21    1
    10    20    22    1
    11    20    23    1
    12    17    18   ar
    13    18    19   ar
    14    10    11    1
    15    11    12    1
    16    12    13    1
    17    13     1    1
    18     1     2   ar
    19     2     3   ar
    20     3     4   ar
    21     4     5   ar
    22     5    25    1
    23    25    26    2
    24    25    27   am
    25    27    29    1
    26    29    30    1
    27    30    31    1
    28    31    32    1
    29    32    33    1
    30    33    34    1
    31    34    35    1
    32    35    36    1
    33    36    37    1
    34    36    38    1
    35    36    39    1
    36     5     6   ar
    37    13     8    1
    38     6     1   ar
    39    19    14   ar
    40    34    29    1
    41    39    30    1
    42    38    32    1
    43    23    24    1
    44    27    28    1
    45    37    40    1
@<TRIPOS>MOLECULE
*****
 40 45 0 0 0
SMALL
GASTEIGER

@<TRIPOS>ATOM
      1 C         143.0256  140.2362  159.4682 C.ar    1  UNL1        0.1319
      2 C         142.8717  141.5124  158.6951 C.ar    1  UNL1        0.0343
      3 C         142.9011  141.4891  157.1956 C.ar    1  UNL1        0.0046
      4 C         143.0844  140.1896  156.4692 C.ar    1  UNL1        0.0239
      5 C         143.2383  138.9134  157.2423 C.ar    1  UNL1        0.1358
      6 N         143.2089  138.9367  158.7418 N.ar    1  UNL1       -0.2261
      7 C         140.4163  139.9561  160.9219 C.3     1  UNL1        0.0233
      8 C         141.6916  140.1195  161.6946 C.3     1  UNL1        0.0939
      9 C         141.6623  140.1428  163.1941 C.3     1  UNL1        0.1106
     10 N         142.9375  140.3063  163.9668 N.pl3   1  UNL1       -0.3029
     11 C         144.2421  140.4463  163.2400 C.3     1  UNL1        0.1123
     12 C         144.2715  140.4229  161.7405 C.3     1  UNL1        0.1135
     13 N         142.9962  140.2595  160.9678 N.pl3   1  UNL1       -0.2914
     14 C         142.9081  140.3296  165.4664 C.ar    1  UNL1        0.0674
     15 C         142.7121  141.6274  166.1925 C.ar    1  UNL1        0.0174
     16 C         142.6827  141.6508  167.6920 C.ar    1  UNL1        0.0183
     17 C         142.8493  140.3763  168.4654 C.ar    1  UNL1        0.0831
     18 N         143.0453  139.0786  167.7393 N.ar    1  UNL1       -0.2446
     19 C         143.0747  139.0552  166.2397 C.ar    1  UNL1        0.1130
     20 C         142.8199  140.3997  169.9649 C.3     1  UNL1        0.1232
     21 C         142.2477  139.0132  169.9754 C.3     1  UNL1        0.0355
     22 C         143.3920  141.7863  169.9545 C.3     1  UNL1        0.0355
     23 O         142.7905  140.4231  171.4644 O.3     1  UNL1       -0.3812
     24 H         142.4353  139.5828  171.7940 H       1  UNL1        0.2107
     25 C         143.4217  137.6139  156.5158 C.2     1  UNL1        0.2636
     26 O         144.6290  137.4018  155.6513 O.2     1  UNL1       -0.2685
     27 N         142.3977  136.5265  156.6539 N.am    1  UNL1       -0.3013
     28 H         141.6053  136.6657  157.2213 H       1  UNL1        0.1497
     29 C         142.5811  135.2270  155.9274 C.3     1  UNL1        0.0719
     30 C         143.2434  134.0702  156.6152 C.3     1  UNL1        0.0203
     31 C         142.7644  133.9275  155.2010 C.3     1  UNL1        0.0018
     32 C         142.9478  132.6281  154.4746 C.3     1  UNL1        0.0024
     33 C         142.2854  133.7849  153.7867 C.3     1  UNL1        0.0018
     34 C         142.1021  135.0843  154.5131 C.3     1  UNL1        0.0203
     35 C         143.4302  132.1994  155.3630 C.3     1  UNL1        0.0285
     36 C         144.0891  131.6140  156.5767 C.3     1  UNL1        0.0884
     37 O         144.7515  130.4572  157.2645 O.3     1  UNL1       -0.3867
     38 C         143.6101  131.4713  155.1624 C.3     1  UNL1        0.0269
     39 C         143.9058  132.9134  157.3031 C.3     1  UNL1        0.0285
     40 H         144.7902  129.7002  156.6592 H       1  UNL1        0.2102
@<TRIPOS>BOND
     1     8     7    1
     2     8     9    1
     3     9    10    1
     4    10    14    1
     5    14    15   ar
     6    15    16   ar
     7    16    17   ar
     8    17    20    1
     9    20    21    1
    10    20    22    1
    11    20    23    1
    12    17    18   ar
    13    18    19   ar
    14    10    11    1
    15    11    12    1
    16    12    13    1
    17    13     1    1
    18     1     2   ar
    19     2     3   ar
    20     3     4   ar
    21     4     5   ar
    22     5    25    1
    23    25    26    2
    24    25    27   am
    25    27    29    1
    26    29    30    1
    27    30    31    1
    28    31    32    1
    29    32    33    1
    30    33    34    1
    31    34    35    1
    32    35    36    1
    33    36    37    1
    34    36    38    1
    35    36    39    1
    36     5     6   ar
    37    13     8    1
    38     6     1   ar
    39    19    14   ar
    40    34    29    1
    41    39    30    1
    42    38    32    1
    43    23    24    1
    44    27    28    1
    45    37    40    1
@<TRIPOS>MOLECULE
*****
 40 45 0 0 0
SMALL
GASTEIGER

@<TRIPOS>ATOM
      1 C         139.6443  143.0509  159.8950 C.ar    1  UNL1        0.1319
      2 C         138.8906  141.9236  159.2538 C.ar    1  UNL1        0.0343
      3 C         138.5191  141.9994  157.8025 C.ar    1  UNL1        0.0046
      4 C         138.9013  143.2026  156.9924 C.ar    1  UNL1        0.0239
      5 C         139.6551  144.3299  157.6336 C.ar    1  UNL1        0.1358
      6 N         140.0266  144.2540  159.0849 N.ar    1  UNL1       -0.2261
      7 C         142.2188  141.7492  160.7183 C.3     1  UNL1        0.0233
      8 C         141.3030  142.3242  161.7580 C.3     1  UNL1        0.0939
      9 C         141.6744  142.2483  163.2092 C.3     1  UNL1        0.1106
     10 N         140.7587  142.8233  164.2488 N.pl3   1  UNL1       -0.3029
     11 C         139.4715  143.4741  163.8372 C.3     1  UNL1        0.1123
     12 C         139.1001  143.5500  162.3859 C.3     1  UNL1        0.1135
     13 N         140.0158  142.9750  161.3463 N.pl3   1  UNL1       -0.2914
     14 C         141.1302  142.7474  165.7002 C.ar    1  UNL1        0.0674
     15 C         140.0925  142.9974  166.7540 C.ar    1  UNL1        0.0174
     16 C         140.4639  142.9216  168.2053 C.ar    1  UNL1        0.0183
     17 C         141.8731  142.5956  168.6028 C.ar    1  UNL1        0.0831
     18 N         142.9108  142.3456  167.5489 N.ar    1  UNL1       -0.2446
     19 C         142.5394  142.4215  166.0976 C.ar    1  UNL1        0.1130
     20 C         142.2446  142.5198  170.0541 C.3     1  UNL1        0.1232
     21 C         140.8162  142.7767  170.4331 C.3     1  UNL1        0.0355
     22 C         143.6729  142.2628  169.6751 C.3     1  UNL1        0.0355
     23 O         142.6160  142.4439  171.5053 O.3     1  UNL1       -0.3812
     24 H         141.8252  142.5842  172.0492 H       1  UNL1        0.2107
     25 C         140.0373  145.5331  156.8234 C.2     1  UNL1        0.2636
     26 O         141.4036  146.1341  156.9720 O.2     1  UNL1       -0.2685
     27 N         139.0533  146.1352  155.8648 N.am    1  UNL1       -0.3013
     28 H         138.1565  145.7407  155.7673 H       1  UNL1        0.1497
     29 C         139.4355  147.3384  155.0546 C.3     1  UNL1        0.0719
     30 C         138.9440  148.6982  155.4537 C.3     1  UNL1        0.0203
     31 C         139.8177  148.5415  154.2445 C.3     1  UNL1        0.0018
     32 C         140.1998  149.7447  153.4344 C.3     1  UNL1        0.0024
     33 C         140.6913  148.3848  153.0353 C.3     1  UNL1        0.0018
     34 C         140.3091  147.1817  153.8454 C.3     1  UNL1        0.0203
     35 C         139.6229  150.3857  154.1141 C.3     1  UNL1        0.0285
     36 C         138.8348  151.2613  155.0426 C.3     1  UNL1        0.0884
     37 O         138.3433  152.6211  155.4417 O.3     1  UNL1       -0.3867
     38 C         139.7084  151.1045  153.8335 C.3     1  UNL1        0.0269
     39 C         138.4526  150.0581  155.8528 C.3     1  UNL1        0.0285
     40 H         138.6795  153.2826  154.8169 H       1  UNL1        0.2102
@<TRIPOS>BOND
     1     8     7    1
     2     8     9    1
     3     9    10    1
     4    10    14    1
     5    14    15   ar
     6    15    16   ar
     7    16    17   ar
     8    17    20    1
     9    20    21    1
    10    20    22    1
    11    20    23    1
    12    17    18   ar
    13    18    19   ar
    14    10    11    1
    15    11    12    1
    16    12    13    1
    17    13     1    1
    18     1     2   ar
    19     2     3   ar
    20     3     4   ar
    21     4     5   ar
    22     5    25    1
    23    25    26    2
    24    25    27   am
    25    27    29    1
    26    29    30    1
    27    30    31    1
    28    31    32    1
    29    32    33    1
    30    33    34    1
    31    34    35    1
    32    35    36    1
    33    36    37    1
    34    36    38    1
    35    36    39    1
    36     5     6   ar
    37    13     8    1
    38     6     1   ar
    39    19    14   ar
    40    34    29    1
    41    39    30    1
    42    38    32    1
    43    23    24    1
    44    27    28    1
    45    37    40    1
@<TRIPOS>MOLECULE
*****
 40 45 0 0 0
SMALL
GASTEIGER

@<TRIPOS>ATOM
      1 C         141.9081  140.2009  159.7082 C.ar    1  UNL1        0.1319
      2 C         141.7365  141.4841  158.9506 C.ar    1  UNL1        0.0343
      3 C         141.9361  141.5100  157.4642 C.ar    1  UNL1        0.0046
      4 C         142.3073  140.2527  156.7354 C.ar    1  UNL1        0.0239
      5 C         142.4790  138.9695  157.4930 C.ar    1  UNL1        0.1358
      6 N         142.2794  138.9436  158.9794 N.ar    1  UNL1       -0.2261
      7 C         144.2464  140.6079  161.5431 C.3     1  UNL1        0.0233
      8 C         142.8776  140.3786  162.1121 C.3     1  UNL1        0.0939
      9 C         142.6779  140.3527  163.5985 C.3     1  UNL1        0.1106
     10 N         141.3091  140.1234  164.1675 N.pl3   1  UNL1       -0.3029
     11 C         140.1400  139.9199  163.2501 C.3     1  UNL1        0.1123
     12 C         140.3396  139.9458  161.7637 C.3     1  UNL1        0.1135
     13 N         141.7085  140.1751  161.1947 N.pl3   1  UNL1       -0.2914
     14 C         141.1095  140.0976  165.6539 C.ar    1  UNL1        0.0674
     15 C         142.2606  139.7744  166.5597 C.ar    1  UNL1        0.0174
     16 C         142.0610  139.7486  168.0462 C.ar    1  UNL1        0.0183
     17 C         140.7102  140.0459  168.6268 C.ar    1  UNL1        0.0831
     18 N         139.5591  140.3691  167.7210 N.ar    1  UNL1       -0.2446
     19 C         139.7588  140.3949  166.2345 C.ar    1  UNL1        0.1130
     20 C         140.5107  140.0201  170.1132 C.3     1  UNL1        0.1232
     21 C         141.9319  139.5769  170.2964 C.3     1  UNL1        0.0355
     22 C         139.0894  140.4632  169.9301 C.3     1  UNL1        0.0355
     23 O         140.3111  139.9942  171.5996 O.3     1  UNL1       -0.3812
     24 H         141.1346  139.7185  172.0317 H       1  UNL1        0.2107
     25 C         142.8503  137.7121  156.7641 C.2     1  UNL1        0.2636
     26 O         144.1787  137.6090  156.0752 O.2     1  UNL1       -0.2685
     27 N         141.8931  136.5579  156.7241 N.am    1  UNL1       -0.3013
     28 H         141.0212  136.6256  157.1762 H       1  UNL1        0.1497
     29 C         142.2644  135.3005  155.9951 C.3     1  UNL1        0.0719
     30 C         143.0300  134.2219  156.7024 C.3     1  UNL1        0.0203
     31 C         142.6356  134.0432  155.2663 C.3     1  UNL1        0.0018
     32 C         143.0069  132.7859  154.5375 C.3     1  UNL1        0.0024
     33 C         142.2413  133.8645  153.8302 C.3     1  UNL1        0.0018
     34 C         141.8700  135.1219  154.5590 C.3     1  UNL1        0.0203
     35 C         143.4972  132.4054  155.4434 C.3     1  UNL1        0.0285
     36 C         144.1669  131.8859  156.6809 C.3     1  UNL1        0.0884
     37 O         144.9326  130.8072  157.3882 O.3     1  UNL1       -0.3867
     38 C         143.7726  131.7072  155.2448 C.3     1  UNL1        0.0269
     39 C         143.7957  133.1432  157.4097 C.3     1  UNL1        0.0285
     40 H         145.0895  130.0692  156.7786 H       1  UNL1        0.2102
@<TRIPOS>BOND
     1     8     7    1
     2     8     9    1
     3     9    10    1
     4    10    14    1
     5    14    15   ar
     6    15    16   ar
     7    16    17   ar
     8    17    20    1
     9    20    21    1
    10    20    22    1
    11    20    23    1
    12    17    18   ar
    13    18    19   ar
    14    10    11    1
    15    11    12    1
    16    12    13    1
    17    13     1    1
    18     1     2   ar
    19     2     3   ar
    20     3     4   ar
    21     4     5   ar
    22     5    25    1
    23    25    26    2
    24    25    27   am
    25    27    29    1
    26    29    30    1
    27    30    31    1
    28    31    32    1
    29    32    33    1
    30    33    34    1
    31    34    35    1
    32    35    36    1
    33    36    37    1
    34    36    38    1
    35    36    39    1
    36     5     6   ar
    37    13     8    1
    38     6     1   ar
    39    19    14   ar
    40    34    29    1
    41    39    30    1
    42    38    32    1
    43    23    24    1
    44    27    28    1
    45    37    40    1
@<TRIPOS>MOLECULE
*****
 40 45 0 0 0
SMALL
GASTEIGER

@<TRIPOS>ATOM
      1 C         142.9484  138.8990  159.2088 C.ar    1  UNL1        0.1319
      2 C         143.0805  140.0565  158.2640 C.ar    1  UNL1        0.0343
      3 C         143.1065  139.8170  156.7835 C.ar    1  UNL1        0.0046
      4 C         143.0003  138.4200  156.2478 C.ar    1  UNL1        0.0239
      5 C         142.8682  137.2625  157.1926 C.ar    1  UNL1        0.1358
      6 N         142.8423  137.5020  158.6731 N.ar    1  UNL1       -0.2261
      7 C         140.3690  139.6026  160.5696 C.3     1  UNL1        0.0233
      8 C         141.6328  139.4904  161.3697 C.3     1  UNL1        0.0939
      9 C         141.6070  139.7299  162.8502 C.3     1  UNL1        0.1106
     10 N         142.8708  139.6177  163.6504 N.pl3   1  UNL1       -0.3029
     11 C         144.1604  139.2658  162.9700 C.3     1  UNL1        0.1123
     12 C         144.1863  139.0263  161.4895 C.3     1  UNL1        0.1135
     13 N         142.9225  139.1386  160.6894 N.pl3   1  UNL1       -0.2914
     14 C         142.8448  139.8572  165.1309 C.ar    1  UNL1        0.0674
     15 C         142.5709  141.2325  165.6634 C.ar    1  UNL1        0.0174
     16 C         142.5450  141.4721  167.1439 C.ar    1  UNL1        0.0183
     17 C         142.7930  140.3364  168.0920 C.ar    1  UNL1        0.0831
     18 N         143.0669  138.9611  167.5595 N.ar    1  UNL1       -0.2446
     19 C         143.0928  138.7215  166.0789 C.ar    1  UNL1        0.1130
     20 C         142.7670  140.5760  169.5725 C.3     1  UNL1        0.1232
     21 C         143.3375  141.9470  169.3606 C.3     1  UNL1        0.0355
     22 C         142.1966  139.2050  169.7843 C.3     1  UNL1        0.0355
     23 O         142.7411  140.8156  171.0529 O.3     1  UNL1       -0.3812
     24 H         143.0833  141.7031  171.2429 H       1  UNL1        0.2107
     25 C         142.7620  135.8654  156.6569 C.2     1  UNL1        0.2636
     26 O         141.4728  135.3882  156.0568 O.2     1  UNL1       -0.2685
     27 N         143.9451  134.9455  156.7213 N.am    1  UNL1       -0.3013
     28 H         144.7913  135.2587  157.1152 H       1  UNL1        0.1497
     29 C         143.8389  133.5484  156.1855 C.3     1  UNL1        0.0719
     30 C         144.2759  132.3869  157.0281 C.3     1  UNL1        0.0203
     31 C         143.7328  132.1514  155.6499 C.3     1  UNL1        0.0018
     32 C         143.6266  130.7544  155.1142 C.3     1  UNL1        0.0024
     33 C         143.1897  131.9159  154.2716 C.3     1  UNL1        0.0018
     34 C         143.2958  133.3129  154.8073 C.3     1  UNL1        0.0203
     35 C         144.0409  130.3629  156.0528 C.3     1  UNL1        0.0285
     36 C         144.6067  129.8283  157.3349 C.3     1  UNL1        0.0884
     37 O         145.0437  128.6668  158.1775 O.3     1  UNL1       -0.3867
     38 C         144.0636  129.5928  155.9567 C.3     1  UNL1        0.0269
     39 C         144.7129  131.2253  157.8706 C.3     1  UNL1        0.0285
     40 H         144.9093  127.8417  157.6854 H       1  UNL1        0.2102
@<TRIPOS>BOND
     1     8     7    1
     2     8     9    1
     3     9    10    1
     4    10    14    1
     5    14    15   ar
     6    15    16   ar
     7    16    17   ar
     8    17    20    1
     9    20    21    1
    10    20    22    1
    11    20    23    1
    12    17    18   ar
    13    18    19   ar
    14    10    11    1
    15    11    12    1
    16    12    13    1
    17    13     1    1
    18     1     2   ar
    19     2     3   ar
    20     3     4   ar
    21     4     5   ar
    22     5    25    1
    23    25    26    2
    24    25    27   am
    25    27    29    1
    26    29    30    1
    27    30    31    1
    28    31    32    1
    29    32    33    1
    30    33    34    1
    31    34    35    1
    32    35    36    1
    33    36    37    1
    34    36    38    1
    35    36    39    1
    36     5     6   ar
    37    13     8    1
    38     6     1   ar
    39    19    14   ar
    40    34    29    1
    41    39    30    1
    42    38    32    1
    43    23    24    1
    44    27    28    1
    45    37    40    1
@<TRIPOS>MOLECULE
*****
 40 45 0 0 0
SMALL
GASTEIGER

@<TRIPOS>ATOM
      1 C         139.2764  141.8443  160.3394 C.ar    1  UNL1        0.1319
      2 C         138.4669  140.7800  159.6597 C.ar    1  UNL1        0.0343
      3 C         138.0906  140.9315  158.2156 C.ar    1  UNL1        0.0046
      4 C         138.5239  142.1472  157.4512 C.ar    1  UNL1        0.0239
      5 C         139.3334  143.2115  158.1310 C.ar    1  UNL1        0.1358
      6 N         139.7097  143.0600  159.5750 N.ar    1  UNL1       -0.2261
      7 C         137.7258  143.3012  162.4544 C.3     1  UNL1        0.0233
      8 C         138.8773  142.4212  162.8410 C.3     1  UNL1        0.0939
      9 C         139.2536  142.2697  164.2851 C.3     1  UNL1        0.1106
     10 N         140.4052  141.3897  164.6717 N.pl3   1  UNL1       -0.3029
     11 C         141.1805  140.6613  163.6143 C.3     1  UNL1        0.1123
     12 C         140.8042  140.8128  162.1702 C.3     1  UNL1        0.1135
     13 N         139.6526  141.6928  161.7836 N.pl3   1  UNL1       -0.2914
     14 C         140.7815  141.2382  166.1159 C.ar    1  UNL1        0.0674
     15 C         140.4784  142.3385  167.0893 C.ar    1  UNL1        0.0174
     16 C         140.8546  142.1870  168.5334 C.ar    1  UNL1        0.0183
     17 C         141.5339  140.9352  169.0042 C.ar    1  UNL1        0.0831
     18 N         141.8371  139.8350  168.0308 N.ar    1  UNL1       -0.2446
     19 C         141.4608  139.9865  166.5866 C.ar    1  UNL1        0.1130
     20 C         141.9102  140.7838  170.4483 C.3     1  UNL1        0.1232
     21 C         143.3493  141.0213  170.0983 C.3     1  UNL1        0.0355
     22 C         140.4711  140.5462  170.7983 C.3     1  UNL1        0.0355
     23 O         142.2864  140.6323  171.8924 O.3     1  UNL1       -0.3812
     24 H         143.2449  140.7445  171.9903 H       1  UNL1        0.2107
     25 C         139.7667  144.4272  157.3665 C.2     1  UNL1        0.2636
     26 O         140.9257  145.2455  157.8532 O.2     1  UNL1       -0.2685
     27 N         139.0409  144.8246  156.1154 N.am    1  UNL1       -0.3013
     28 H         138.2801  144.2875  155.7960 H       1  UNL1        0.1497
     29 C         139.4741  146.0403  155.3510 C.3     1  UNL1        0.0719
     30 C         138.9746  147.3964  155.7529 C.3     1  UNL1        0.0203
     31 C         139.9074  147.2561  154.5866 C.3     1  UNL1        0.0018
     32 C         140.3406  148.4718  153.8222 C.3     1  UNL1        0.0024
     33 C         140.8401  147.1157  153.4204 C.3     1  UNL1        0.0018
     34 C         140.4069  145.9000  154.1847 C.3     1  UNL1        0.0203
     35 C         139.7352  149.1043  154.4850 C.3     1  UNL1        0.0285
     36 C         138.9083  149.9682  155.3904 C.3     1  UNL1        0.0884
     37 O         138.4087  151.3243  155.7923 O.3     1  UNL1       -0.3867
     38 C         139.8410  149.8278  154.2241 C.3     1  UNL1        0.0269
     39 C         138.4750  148.7525  156.1548 C.3     1  UNL1        0.0285
     40 H         138.7819  151.9951  155.1993 H       1  UNL1        0.2102
@<TRIPOS>BOND
     1     8     7    1
     2     8     9    1
     3     9    10    1
     4    10    14    1
     5    14    15   ar
     6    15    16   ar
     7    16    17   ar
     8    17    20    1
     9    20    21    1
    10    20    22    1
    11    20    23    1
    12    17    18   ar
    13    18    19   ar
    14    10    11    1
    15    11    12    1
    16    12    13    1
    17    13     1    1
    18     1     2   ar
    19     2     3   ar
    20     3     4   ar
    21     4     5   ar
    22     5    25    1
    23    25    26    2
    24    25    27   am
    25    27    29    1
    26    29    30    1
    27    30    31    1
    28    31    32    1
    29    32    33    1
    30    33    34    1
    31    34    35    1
    32    35    36    1
    33    36    37    1
    34    36    38    1
    35    36    39    1
    36     5     6   ar
    37    13     8    1
    38     6     1   ar
    39    19    14   ar
    40    34    29    1
    41    39    30    1
    42    38    32    1
    43    23    24    1
    44    27    28    1
    45    37    40    1
@<TRIPOS>MOLECULE
*****
 40 45 0 0 0
SMALL
GASTEIGER

@<TRIPOS>ATOM
      1 C         141.0883  138.6040  159.9034 C.ar    1  UNL1        0.1319
      2 C         142.3040  137.9617  159.3039 C.ar    1  UNL1        0.0343
      3 C         142.3766  137.7290  157.8239 C.ar    1  UNL1        0.0046
      4 C         141.2335  138.1387  156.9433 C.ar    1  UNL1        0.0239
      5 C         140.0178  138.7811  157.5428 C.ar    1  UNL1        0.1358
      6 N         139.9452  139.0138  159.0229 N.ar    1  UNL1       -0.2261
      7 C         142.1190  141.1681  161.0711 C.3     1  UNL1        0.0233
      8 C         141.5310  140.1187  161.9674 C.3     1  UNL1        0.0939
      9 C         141.4584  140.3513  163.4474 C.3     1  UNL1        0.1106
     10 N         140.8705  139.3020  164.3436 N.pl3   1  UNL1       -0.3029
     11 C         140.3552  138.0200  163.7598 C.3     1  UNL1        0.1123
     12 C         140.4278  137.7874  162.2797 C.3     1  UNL1        0.1135
     13 N         141.0157  138.8367  161.3835 N.pl3   1  UNL1       -0.2914
     14 C         140.7979  139.5346  165.8237 C.ar    1  UNL1        0.0674
     15 C         139.4645  139.6706  166.4970 C.ar    1  UNL1        0.0174
     16 C         139.3918  139.9032  167.9771 C.ar    1  UNL1        0.0183
     17 C         140.6528  140.0000  168.7839 C.ar    1  UNL1        0.0831
     18 N         141.9862  139.8641  168.1106 N.ar    1  UNL1       -0.2446
     19 C         142.0588  139.6314  166.6304 C.ar    1  UNL1        0.1130
     20 C         140.5801  140.2327  170.2639 C.3     1  UNL1        0.1232
     21 C         139.1201  140.5541  170.1417 C.3     1  UNL1        0.0355
     22 C         142.0402  139.9112  170.3861 C.3     1  UNL1        0.0355
     23 O         140.5075  140.4653  171.7439 O.3     1  UNL1       -0.3812
     24 H         139.6017  140.7115  171.9885 H       1  UNL1        0.2107
     25 C         138.8747  139.1908  156.6622 C.2     1  UNL1        0.2636
     26 O         138.5120  138.3584  155.4682 O.2     1  UNL1       -0.2685
     27 N         138.0942  140.4328  156.9756 N.am    1  UNL1       -0.3013
     28 H         138.3323  140.9791  157.7592 H       1  UNL1        0.1497
     29 C         136.9511  140.8425  156.0949 C.3     1  UNL1        0.0719
     30 C         135.5521  140.4251  156.4392 C.3     1  UNL1        0.0203
     31 C         135.8080  141.2522  155.2143 C.3     1  UNL1        0.0018
     32 C         134.6649  141.6619  154.3338 C.3     1  UNL1        0.0024
     33 C         136.0639  142.0793  153.9895 C.3     1  UNL1        0.0018
     34 C         137.2070  141.6696  154.8700 C.3     1  UNL1        0.0203
     35 C         133.9654  141.1359  154.9970 C.3     1  UNL1        0.0285
     36 C         133.0100  140.4173  155.9030 C.3     1  UNL1        0.0884
     37 O         131.6110  139.9999  156.2473 O.3     1  UNL1       -0.3867
     38 C         133.2659  141.2444  154.6781 C.3     1  UNL1        0.0269
     39 C         134.1531  140.0077  156.7836 C.3     1  UNL1        0.0285
     40 H         130.9971  140.3453  155.5804 H       1  UNL1        0.2102
@<TRIPOS>BOND
     1     8     7    1
     2     8     9    1
     3     9    10    1
     4    10    14    1
     5    14    15   ar
     6    15    16   ar
     7    16    17   ar
     8    17    20    1
     9    20    21    1
    10    20    22    1
    11    20    23    1
    12    17    18   ar
    13    18    19   ar
    14    10    11    1
    15    11    12    1
    16    12    13    1
    17    13     1    1
    18     1     2   ar
    19     2     3   ar
    20     3     4   ar
    21     4     5   ar
    22     5    25    1
    23    25    26    2
    24    25    27   am
    25    27    29    1
    26    29    30    1
    27    30    31    1
    28    31    32    1
    29    32    33    1
    30    33    34    1
    31    34    35    1
    32    35    36    1
    33    36    37    1
    34    36    38    1
    35    36    39    1
    36     5     6   ar
    37    13     8    1
    38     6     1   ar
    39    19    14   ar
    40    34    29    1
    41    39    30    1
    42    38    32    1
    43    23    24    1
    44    27    28    1
    45    37    40    1
