@<TRIPOS>MOLECULE
*****
 26 28 0 0 0
SMALL
GASTEIGER

@<TRIPOS>ATOM
      1 C         139.7008  142.8431  165.3724 C.3     1  UNL1        0.0537
      2 C         140.5597  141.8977  166.1588 C.ar    1  UNL1        0.0782
      3 C         141.1023  142.3117  167.4945 C.ar    1  UNL1        0.0931
      4 N         141.9612  141.3664  168.2809 N.ar    1  UNL1       -0.2927
      5 C         142.2776  140.0068  167.7316 C.ar    1  UNL1        0.2787
      6 O         143.1366  139.0615  168.5181 O.2     1  UNL1       -0.2653
      7 C         141.7351  139.5928  166.3959 C.ar    1  UNL1        0.1397
      8 C         141.8763  138.3268  165.6039 C.ar    1  UNL1        0.0424
      9 C         141.1047  138.4898  164.3280 C.ar    1  UNL1        0.1052
     10 N         140.4865  139.8565  164.3314 N.ar    1  UNL1       -0.1676
     11 N         140.8761  140.5382  165.6095 N.ar    1  UNL1       -0.2278
     12 C         142.5038  141.7805  169.6167 C.3     1  UNL1        0.1037
     13 C         143.8858  142.3543  169.7197 C.3     1  UNL1        0.0257
     14 C         141.6642  141.6207  170.8495 C.3     1  UNL1        0.1279
     15 C         140.5396  140.6283  170.8676 C.1     1  UNL1        0.0751
     16 N         139.4150  139.6359  170.8856 N.1     1  UNL1       -0.1958
     17 C         140.9741  137.4659  163.2396 C.3     1  UNL1        0.1755
     18 N         140.7474  137.9023  161.8225 N.ar    1  UNL1       -0.2343
     19 N         141.8108  138.1313  160.7897 N.ar    1  UNL1       -0.1669
     20 C         141.1382  138.5569  159.5184 C.ar    1  UNL1        0.1469
     21 C         139.6590  138.5909  159.7653 C.ar    1  UNL1        0.0524
     22 C         139.4175  138.1863  161.1895 C.ar    1  UNL1        0.1367
     23 CL        138.0809  138.0838  161.8623 Cl      1  UNL1       -0.0617
     24 C         141.8242  138.8900  158.2267 C.3     1  UNL1        0.3599
     25 F         141.5542  140.2016  157.5505 F       1  UNL1       -0.1915
     26 F         142.7801  137.9117  157.6111 F       1  UNL1       -0.1915
@<TRIPOS>BOND
     1     1     2    1
     2     2     3   ar
     3     3     4   ar
     4     4    12    1
     5    12    13    1
     6    12    14    1
     7    14    15    1
     8    15    16    3
     9     4     5   ar
    10     5     6    2
    11     5     7   ar
    12     7     8   ar
    13     8     9   ar
    14     9    17    1
    15    17    18    1
    16    18    19   ar
    17    19    20   ar
    18    20    24    1
    19    24    25    1
    20    24    26    1
    21    20    21   ar
    22    21    22   ar
    23    22    23    1
    24     9    10   ar
    25    10    11   ar
    26    11     2   ar
    27    11     7   ar
    28    22    18   ar
@<TRIPOS>MOLECULE
*****
 26 28 0 0 0
SMALL
GASTEIGER

@<TRIPOS>ATOM
      1 C         143.4943  139.7901  164.3685 C.3     1  UNL1        0.0537
      2 C         142.5058  139.8186  165.4963 C.ar    1  UNL1        0.0782
      3 C         142.9852  139.7466  166.9158 C.ar    1  UNL1        0.0931
      4 N         141.9968  139.7751  168.0436 N.ar    1  UNL1       -0.2927
      5 C         140.5288  139.8756  167.7520 C.ar    1  UNL1        0.2787
      6 O         139.5403  139.9041  168.8800 O.2     1  UNL1       -0.2653
      7 C         140.0494  139.9477  166.3325 C.ar    1  UNL1        0.1397
      8 C         138.6746  140.0512  165.7415 C.ar    1  UNL1        0.0424
      9 C         138.8135  140.0868  164.2484 C.ar    1  UNL1        0.1052
     10 N         140.2740  140.0051  163.9166 N.ar    1  UNL1       -0.1676
     11 N         141.0379  139.9192  165.2047 N.ar    1  UNL1       -0.2278
     12 C         142.4763  139.7030  169.4632 C.3     1  UNL1        0.1037
     13 C         142.6965  138.3694  170.1136 C.3     1  UNL1        0.0257
     14 C         142.7355  140.9645  170.2322 C.3     1  UNL1        0.1279
     15 C         141.6563  141.5548  171.0906 C.1     1  UNL1        0.0751
     16 N         140.5770  142.1449  171.9489 N.1     1  UNL1       -0.1958
     17 C         137.6892  140.1864  163.2605 C.3     1  UNL1        0.1755
     18 N         137.9416  140.7426  161.8905 N.ar    1  UNL1       -0.2343
     19 N         138.0850  139.9454  160.6280 N.ar    1  UNL1       -0.1669
     20 C         138.3270  140.9037  159.4997 C.ar    1  UNL1        0.1469
     21 C         138.3333  142.2932  160.0648 C.ar    1  UNL1        0.0524
     22 C         138.0951  142.1936  161.5425 C.ar    1  UNL1        0.1367
     23 CL        138.0230  143.3431  162.5033 Cl      1  UNL1       -0.0617
     24 C         138.5276  140.5370  158.0591 C.3     1  UNL1        0.3599
     25 F         139.8832  140.1157  157.5742 F       1  UNL1       -0.1915
     26 F         137.3728  140.5914  157.1035 F       1  UNL1       -0.1915
@<TRIPOS>BOND
     1     1     2    1
     2     2     3   ar
     3     3     4   ar
     4     4    12    1
     5    12    13    1
     6    12    14    1
     7    14    15    1
     8    15    16    3
     9     4     5   ar
    10     5     6    2
    11     5     7   ar
    12     7     8   ar
    13     8     9   ar
    14     9    17    1
    15    17    18    1
    16    18    19   ar
    17    19    20   ar
    18    20    24    1
    19    24    25    1
    20    24    26    1
    21    20    21   ar
    22    21    22   ar
    23    22    23    1
    24     9    10   ar
    25    10    11   ar
    26    11     2   ar
    27    11     7   ar
    28    22    18   ar
@<TRIPOS>MOLECULE
*****
 26 28 0 0 0
SMALL
GASTEIGER

@<TRIPOS>ATOM
      1 C         138.5281  140.7037  164.7618 C.3     1  UNL1        0.0537
      2 C         139.6851  141.1150  165.6233 C.ar    1  UNL1        0.0782
      3 C         139.7220  140.7179  167.0693 C.ar    1  UNL1        0.0931
      4 N         140.8789  141.1291  167.9307 N.ar    1  UNL1       -0.2927
      5 C         141.9991  141.9376  167.3462 C.ar    1  UNL1        0.2787
      6 O         143.1561  142.3489  168.2078 O.2     1  UNL1       -0.2653
      7 C         141.9622  142.3348  165.9003 C.ar    1  UNL1        0.1397
      8 C         142.9146  143.1239  165.0516 C.ar    1  UNL1        0.0424
      9 C         142.3462  143.2003  163.6656 C.ar    1  UNL1        0.1052
     10 N         141.0425  142.4584  163.6577 N.ar    1  UNL1       -0.1676
     11 N         140.8052  141.9235  165.0388 N.ar    1  UNL1       -0.2278
     12 C         140.9158  140.7319  169.3768 C.3     1  UNL1        0.1037
     13 C         141.6823  139.5142  169.8008 C.3     1  UNL1        0.0257
     14 C         140.1862  141.5524  170.3988 C.3     1  UNL1        0.1279
     15 C         140.1610  143.0476  170.2812 C.1     1  UNL1        0.0751
     16 N         140.1358  144.5427  170.1637 N.1     1  UNL1       -0.1958
     17 C         142.9716  143.8964  162.4933 C.3     1  UNL1        0.1755
     18 N         142.1093  144.4102  161.3787 N.ar    1  UNL1       -0.2343
     19 N         142.3371  144.1868  159.9130 N.ar    1  UNL1       -0.1669
     20 C         141.2364  144.8762  159.1625 C.ar    1  UNL1        0.1469
     21 C         140.3282  145.5256  160.1643 C.ar    1  UNL1        0.0524
     22 C         140.8678  145.2376  161.5340 C.ar    1  UNL1        0.1367
     23 CL        140.2706  145.6964  162.8313 Cl      1  UNL1       -0.0617
     24 C         141.0725  144.9101  157.6719 C.3     1  UNL1        0.3599
     25 F         141.2224  146.2054  156.9302 F       1  UNL1       -0.1915
     26 F         140.7587  143.6490  156.9229 F       1  UNL1       -0.1915
@<TRIPOS>BOND
     1     1     2    1
     2     2     3   ar
     3     3     4   ar
     4     4    12    1
     5    12    13    1
     6    12    14    1
     7    14    15    1
     8    15    16    3
     9     4     5   ar
    10     5     6    2
    11     5     7   ar
    12     7     8   ar
    13     8     9   ar
    14     9    17    1
    15    17    18    1
    16    18    19   ar
    17    19    20   ar
    18    20    24    1
    19    24    25    1
    20    24    26    1
    21    20    21   ar
    22    21    22   ar
    23    22    23    1
    24     9    10   ar
    25    10    11   ar
    26    11     2   ar
    27    11     7   ar
    28    22    18   ar
@<TRIPOS>MOLECULE
*****
 26 28 0 0 0
SMALL
GASTEIGER

@<TRIPOS>ATOM
      1 C         143.3854  141.9259  165.3811 C.3     1  UNL1        0.0537
      2 C         142.2911  141.4331  166.2810 C.ar    1  UNL1        0.0782
      3 C         142.1285  142.0167  167.6531 C.ar    1  UNL1        0.0931
      4 N         141.0343  141.5240  168.5529 N.ar    1  UNL1       -0.2927
      5 C         140.1025  140.4475  168.0806 C.ar    1  UNL1        0.2787
      6 O         139.0082  139.9547  168.9805 O.2     1  UNL1       -0.2653
      7 C         140.2651  139.8638  166.7084 C.ar    1  UNL1        0.1397
      8 C         139.5046  138.7999  165.9737 C.ar    1  UNL1        0.0424
      9 C         140.1288  138.6353  164.6198 C.ar    1  UNL1        0.1052
     10 N         141.2752  139.5973  164.5177 N.ar    1  UNL1       -0.1676
     11 N         141.3594  140.3566  165.8086 N.ar    1  UNL1       -0.2278
     12 C         140.8717  142.1077  169.9252 C.3     1  UNL1        0.1037
     13 C         140.1287  143.3977  170.1083 C.3     1  UNL1        0.0257
     14 C         141.4522  141.4012  171.1143 C.3     1  UNL1        0.1279
     15 C         142.4737  140.3202  170.9195 C.1     1  UNL1        0.0751
     16 N         143.4951  139.2391  170.7246 N.1     1  UNL1       -0.1958
     17 C         139.6848  137.6768  163.5548 C.3     1  UNL1        0.1755
     18 N         139.9620  137.9780  162.1118 N.ar    1  UNL1       -0.2343
     19 N         141.2779  137.8068  161.4124 N.ar    1  UNL1       -0.1669
     20 C         141.1012  138.2262  159.9832 C.ar    1  UNL1        0.1469
     21 C         139.6761  138.6566  159.7991 C.ar    1  UNL1        0.0524
     22 C         138.9720  138.5032  161.1147 C.ar    1  UNL1        0.1367
     23 CL        137.5310  138.8194  161.3857 Cl      1  UNL1       -0.0617
     24 C         142.1631  138.2169  158.9238 C.3     1  UNL1        0.3599
     25 F         143.5245  138.7719  159.2217 F       1  UNL1       -0.1915
     26 F         141.8637  137.6526  157.5666 F       1  UNL1       -0.1915
@<TRIPOS>BOND
     1     1     2    1
     2     2     3   ar
     3     3     4   ar
     4     4    12    1
     5    12    13    1
     6    12    14    1
     7    14    15    1
     8    15    16    3
     9     4     5   ar
    10     5     6    2
    11     5     7   ar
    12     7     8   ar
    13     8     9   ar
    14     9    17    1
    15    17    18    1
    16    18    19   ar
    17    19    20   ar
    18    20    24    1
    19    24    25    1
    20    24    26    1
    21    20    21   ar
    22    21    22   ar
    23    22    23    1
    24     9    10   ar
    25    10    11   ar
    26    11     2   ar
    27    11     7   ar
    28    22    18   ar
@<TRIPOS>MOLECULE
*****
 26 28 0 0 0
SMALL
GASTEIGER

@<TRIPOS>ATOM
      1 C         138.5041  139.1505  164.3283 C.3     1  UNL1        0.0537
      2 C         139.2712  140.0617  165.2400 C.ar    1  UNL1        0.0782
      3 C         139.8212  139.5389  166.5338 C.ar    1  UNL1        0.0931
      4 N         140.5883  140.4501  167.4455 N.ar    1  UNL1       -0.2927
      5 C         140.8055  141.8843  167.0633 C.ar    1  UNL1        0.2787
      6 O         141.5727  142.7955  167.9750 O.2     1  UNL1       -0.2653
      7 C         140.2555  142.4071  165.7694 C.ar    1  UNL1        0.1397
      8 C         140.3098  143.7633  165.1309 C.ar    1  UNL1        0.0424
      9 C         139.5762  143.6902  163.8245 C.ar    1  UNL1        0.1052
     10 N         139.0685  142.2889  163.6557 N.ar    1  UNL1       -0.1676
     11 N         139.4883  141.4959  164.8578 N.ar    1  UNL1       -0.2278
     12 C         141.1383  139.9271  168.7394 C.3     1  UNL1        0.1037
     13 C         142.5219  139.3498  168.7874 C.3     1  UNL1        0.0257
     14 C         140.3047  139.9816  169.9852 C.3     1  UNL1        0.1279
     15 C         140.5176  141.0817  170.9825 C.1     1  UNL1        0.0751
     16 N         140.7304  142.1817  171.9798 N.1     1  UNL1       -0.1958
     17 C         139.3840  144.8201  162.8568 C.3     1  UNL1        0.1755
     18 N         140.1352  144.8317  161.5586 N.ar    1  UNL1       -0.2343
     19 N         139.7723  145.6229  160.3370 N.ar    1  UNL1       -0.1669
     20 C         140.7940  145.3343  159.2774 C.ar    1  UNL1        0.1469
     21 C         141.7884  144.3647  159.8440 C.ar    1  UNL1        0.0524
     22 C         141.3812  144.0540  161.2539 C.ar    1  UNL1        0.1367
     23 CL        142.0948  143.1283  162.1940 Cl      1  UNL1       -0.0617
     24 C         140.8173  145.9135  157.8939 C.3     1  UNL1        0.3599
     25 F         139.6543  146.7218  157.3996 F       1  UNL1       -0.1915
     26 F         142.0034  145.6846  157.0048 F       1  UNL1       -0.1915
@<TRIPOS>BOND
     1     1     2    1
     2     2     3   ar
     3     3     4   ar
     4     4    12    1
     5    12    13    1
     6    12    14    1
     7    14    15    1
     8    15    16    3
     9     4     5   ar
    10     5     6    2
    11     5     7   ar
    12     7     8   ar
    13     8     9   ar
    14     9    17    1
    15    17    18    1
    16    18    19   ar
    17    19    20   ar
    18    20    24    1
    19    24    25    1
    20    24    26    1
    21    20    21   ar
    22    21    22   ar
    23    22    23    1
    24     9    10   ar
    25    10    11   ar
    26    11     2   ar
    27    11     7   ar
    28    22    18   ar
@<TRIPOS>MOLECULE
*****
 26 28 0 0 0
SMALL
GASTEIGER

@<TRIPOS>ATOM
      1 C         142.6774  138.3147  165.7140 C.3     1  UNL1        0.0537
      2 C         142.0989  139.5207  166.3928 C.ar    1  UNL1        0.0782
      3 C         142.6605  139.9849  167.7040 C.ar    1  UNL1        0.0931
      4 N         142.0821  141.1909  168.3828 N.ar    1  UNL1       -0.2927
      5 C         140.9419  141.9328  167.7505 C.ar    1  UNL1        0.2787
      6 O         140.3635  143.1389  168.4294 O.2     1  UNL1       -0.2653
      7 C         140.3803  141.4686  166.4394 C.ar    1  UNL1        0.1397
      8 C         139.2671  141.9938  165.5821 C.ar    1  UNL1        0.0424
      9 C         139.1576  141.1123  164.3734 C.ar    1  UNL1        0.1052
     10 N         140.2031  140.0424  164.4836 N.ar    1  UNL1       -0.1676
     11 N         140.9588  140.2626  165.7605 N.ar    1  UNL1       -0.2278
     12 C         142.6438  141.6551  169.6940 C.3     1  UNL1        0.1037
     13 C         143.9220  142.4394  169.7268 C.3     1  UNL1        0.0257
     14 C         141.9272  141.3350  170.9723 C.3     1  UNL1        0.1279
     15 C         140.6746  140.5103  170.9437 C.1     1  UNL1        0.0751
     16 N         139.4219  139.6857  170.9151 N.1     1  UNL1       -0.1958
     17 C         138.1751  141.2726  163.2513 C.3     1  UNL1        0.1755
     18 N         138.5975  141.9350  161.9735 N.ar    1  UNL1       -0.2343
     19 N         139.3152  143.2469  161.8558 N.ar    1  UNL1       -0.1669
     20 C         139.5375  143.5245  160.3986 C.ar    1  UNL1        0.1469
     21 C         138.9573  142.3842  159.6156 C.ar    1  UNL1        0.0524
     22 C         138.3763  141.4017  160.5890 C.ar    1  UNL1        0.1367
     23 CL        137.6939  140.1126  160.2393 Cl      1  UNL1       -0.0617
     24 C         140.2203  144.7306  159.8250 C.3     1  UNL1        0.3599
     25 F         140.2988  144.9117  158.3379 F       1  UNL1       -0.1915
     26 F         140.8245  145.7557  160.7383 F       1  UNL1       -0.1915
@<TRIPOS>BOND
     1     1     2    1
     2     2     3   ar
     3     3     4   ar
     4     4    12    1
     5    12    13    1
     6    12    14    1
     7    14    15    1
     8    15    16    3
     9     4     5   ar
    10     5     6    2
    11     5     7   ar
    12     7     8   ar
    13     8     9   ar
    14     9    17    1
    15    17    18    1
    16    18    19   ar
    17    19    20   ar
    18    20    24    1
    19    24    25    1
    20    24    26    1
    21    20    21   ar
    22    21    22   ar
    23    22    23    1
    24     9    10   ar
    25    10    11   ar
    26    11     2   ar
    27    11     7   ar
    28    22    18   ar
@<TRIPOS>MOLECULE
*****
 26 28 0 0 0
SMALL
GASTEIGER

@<TRIPOS>ATOM
      1 C         137.8890  138.5666  166.7195 C.3     1  UNL1        0.0537
      2 C         138.7190  139.7672  166.3733 C.ar    1  UNL1        0.0782
      3 C         139.5673  140.4207  167.4236 C.ar    1  UNL1        0.0931
      4 N         140.3972  141.6212  167.0775 N.ar    1  UNL1       -0.2927
      5 C         140.3789  142.1683  165.6809 C.ar    1  UNL1        0.2787
      6 O         141.2088  143.3689  165.3347 O.2     1  UNL1       -0.2653
      7 C         139.5305  141.5148  164.6305 C.ar    1  UNL1        0.1397
      8 C         139.3112  141.8273  163.1799 C.ar    1  UNL1        0.0424
      9 C         138.3456  140.8199  162.6297 C.ar    1  UNL1        0.1052
     10 N         137.9683  139.8847  163.7401 N.ar    1  UNL1       -0.1676
     11 N         138.7006  140.3142  164.9767 N.ar    1  UNL1       -0.2278
     12 C         141.2455  142.2748  168.1279 C.3     1  UNL1        0.1037
     13 C         142.7274  142.0429  168.1464 C.3     1  UNL1        0.0257
     14 C         140.6120  143.1601  169.1598 C.3     1  UNL1        0.1279
     15 C         140.4950  142.6919  170.5800 C.1     1  UNL1        0.0751
     16 N         140.3782  142.2236  172.0002 N.1     1  UNL1       -0.1958
     17 C         137.8452  140.7584  161.2169 C.3     1  UNL1        0.1755
     18 N         138.5883  141.4715  160.1264 N.ar    1  UNL1       -0.2343
     19 N         138.7613  142.9563  160.0025 N.ar    1  UNL1       -0.1669
     20 C         139.5687  143.2275  158.7679 C.ar    1  UNL1        0.1469
     21 C         139.8947  141.9103  158.1285 C.ar    1  UNL1        0.0524
     22 C         139.2888  140.8250  158.9681 C.ar    1  UNL1        0.1367
     23 CL        139.3691  139.3519  158.6972 Cl      1  UNL1       -0.0617
     24 C         139.9783  144.5787  158.2613 C.3     1  UNL1        0.3599
     25 F         140.2654  144.7774  156.8024 F       1  UNL1       -0.1915
     26 F         140.1008  145.7312  159.2136 F       1  UNL1       -0.1915
@<TRIPOS>BOND
     1     1     2    1
     2     2     3   ar
     3     3     4   ar
     4     4    12    1
     5    12    13    1
     6    12    14    1
     7    14    15    1
     8    15    16    3
     9     4     5   ar
    10     5     6    2
    11     5     7   ar
    12     7     8   ar
    13     8     9   ar
    14     9    17    1
    15    17    18    1
    16    18    19   ar
    17    19    20   ar
    18    20    24    1
    19    24    25    1
    20    24    26    1
    21    20    21   ar
    22    21    22   ar
    23    22    23    1
    24     9    10   ar
    25    10    11   ar
    26    11     2   ar
    27    11     7   ar
    28    22    18   ar
@<TRIPOS>MOLECULE
*****
 26 28 0 0 0
SMALL
GASTEIGER

@<TRIPOS>ATOM
      1 C         144.3531  143.5281  164.2190 C.3     1  UNL1        0.0537
      2 C         143.2044  142.9741  165.0088 C.ar    1  UNL1        0.0782
      3 C         143.4213  142.4976  166.4145 C.ar    1  UNL1        0.0931
      4 N         142.2728  141.9436  167.2042 N.ar    1  UNL1       -0.2927
      5 C         140.9072  141.8659  166.5883 C.ar    1  UNL1        0.2787
      6 O         139.7586  141.3118  167.3781 O.2     1  UNL1       -0.2653
      7 C         140.6903  142.3423  165.1826 C.ar    1  UNL1        0.1397
      8 C         139.4665  142.3901  164.3166 C.ar    1  UNL1        0.0424
      9 C         139.8587  142.9736  162.9916 C.ar    1  UNL1        0.1052
     10 N         141.3250  143.2866  163.0387 N.ar    1  UNL1       -0.1676
     11 N         141.8389  142.8964  164.3928 N.ar    1  UNL1       -0.2278
     12 C         142.4897  141.4672  168.6100 C.3     1  UNL1        0.1037
     13 C         142.6652  140.0035  168.8871 C.3     1  UNL1        0.0257
     14 C         142.5311  142.4545  169.7385 C.3     1  UNL1        0.1279
     15 C         141.3934  143.4111  169.9402 C.1     1  UNL1        0.0751
     16 N         140.2558  144.3676  170.1418 N.1     1  UNL1       -0.1958
     17 C         138.9452  143.2038  161.8244 C.3     1  UNL1        0.1755
     18 N         139.5165  143.5549  160.4827 N.ar    1  UNL1       -0.2343
     19 N         139.8341  144.9370  159.9940 N.ar    1  UNL1       -0.1669
     20 C         140.3844  144.8219  158.6033 C.ar    1  UNL1        0.1469
     21 C         140.4068  143.3686  158.2325 C.ar    1  UNL1        0.0524
     22 C         139.8704  142.5855  159.3940 C.ar    1  UNL1        0.1367
     23 CL        139.7151  141.0949  159.4560 Cl      1  UNL1       -0.0617
     24 C         140.8334  145.9601  157.7357 C.3     1  UNL1        0.3599
     25 F         142.2944  146.2768  157.6106 F       1  UNL1       -0.1915
     26 F         139.8217  146.7817  156.9933 F       1  UNL1       -0.1915
@<TRIPOS>BOND
     1     1     2    1
     2     2     3   ar
     3     3     4   ar
     4     4    12    1
     5    12    13    1
     6    12    14    1
     7    14    15    1
     8    15    16    3
     9     4     5   ar
    10     5     6    2
    11     5     7   ar
    12     7     8   ar
    13     8     9   ar
    14     9    17    1
    15    17    18    1
    16    18    19   ar
    17    19    20   ar
    18    20    24    1
    19    24    25    1
    20    24    26    1
    21    20    21   ar
    22    21    22   ar
    23    22    23    1
    24     9    10   ar
    25    10    11   ar
    26    11     2   ar
    27    11     7   ar
    28    22    18   ar
@<TRIPOS>MOLECULE
*****
 26 28 0 0 0
SMALL
GASTEIGER

@<TRIPOS>ATOM
      1 C         138.3938  140.7223  164.9475 C.3     1  UNL1        0.0537
      2 C         139.6016  141.1485  165.7282 C.ar    1  UNL1        0.0782
      3 C         139.8054  140.6475  167.1273 C.ar    1  UNL1        0.0931
      4 N         141.0132  141.0736  167.9080 N.ar    1  UNL1       -0.2927
      5 C         142.0173  142.0008  167.2897 C.ar    1  UNL1        0.2787
      6 O         143.2251  142.4269  168.0705 O.2     1  UNL1       -0.2653
      7 C         141.8134  142.5018  165.8906 C.ar    1  UNL1        0.1397
      8 C         142.6261  143.4177  165.0242 C.ar    1  UNL1        0.0424
      9 C         141.9204  143.5576  163.7079 C.ar    1  UNL1        0.1052
     10 N         140.6717  142.7282  163.7609 N.ar    1  UNL1       -0.1676
     11 N         140.6056  142.0756  165.1099 N.ar    1  UNL1       -0.2278
     12 C         141.2170  140.5726  169.3072 C.3     1  UNL1        0.1037
     13 C         142.1142  139.3973  169.5597 C.3     1  UNL1        0.0257
     14 C         140.5236  141.2468  170.4537 C.3     1  UNL1        0.1279
     15 C         140.2599  142.7227  170.4075 C.1     1  UNL1        0.0751
     16 N         139.9963  144.1986  170.3615 N.1     1  UNL1       -0.1958
     17 C         142.3824  144.3821  162.5431 C.3     1  UNL1        0.1755
     18 N         143.0596  143.7222  161.3787 N.ar    1  UNL1       -0.2343
     19 N         142.6328  143.8125  159.9436 N.ar    1  UNL1       -0.1669
     20 C         143.5919  143.0023  159.1229 C.ar    1  UNL1        0.1469
     21 C         144.6115  142.4112  160.0507 C.ar    1  UNL1        0.0524
     22 C         144.2825  142.8561  161.4450 C.ar    1  UNL1        0.1367
     23 CL        145.0430  142.4979  162.6873 Cl      1  UNL1       -0.0617
     24 C         143.5404  142.8158  157.6354 C.3     1  UNL1        0.3599
     25 F         142.3222  143.2374  156.8683 F       1  UNL1       -0.1915
     26 F         144.7072  142.2079  156.9149 F       1  UNL1       -0.1915
@<TRIPOS>BOND
     1     1     2    1
     2     2     3   ar
     3     3     4   ar
     4     4    12    1
     5    12    13    1
     6    12    14    1
     7    14    15    1
     8    15    16    3
     9     4     5   ar
    10     5     6    2
    11     5     7   ar
    12     7     8   ar
    13     8     9   ar
    14     9    17    1
    15    17    18    1
    16    18    19   ar
    17    19    20   ar
    18    20    24    1
    19    24    25    1
    20    24    26    1
    21    20    21   ar
    22    21    22   ar
    23    22    23    1
    24     9    10   ar
    25    10    11   ar
    26    11     2   ar
    27    11     7   ar
    28    22    18   ar
