@<TRIPOS>MOLECULE
*****
 33 38 0 0 0
SMALL
GASTEIGER

@<TRIPOS>ATOM
      1 C         142.3165  139.5658  164.0172 C.ar    1  UNL1       -0.0077
      2 C         142.8593  140.6465  163.1298 C.ar    1  UNL1        0.0159
      3 C         143.1591  140.3542  161.6894 C.ar    1  UNL1        0.0854
      4 N         143.7020  141.4349  160.8021 N.ar    1  UNL1       -0.2136
      5 C         144.0018  141.1425  159.3617 C.ar    1  UNL1        0.2208
      6 N         143.7587  139.7696  158.8087 N.ar    1  UNL1       -0.2120
      7 C         143.2158  138.6889  159.6960 C.ar    1  UNL1        0.1033
      8 C         142.9161  138.9812  161.1364 C.ar    1  UNL1        0.0378
      9 C         142.3732  137.9005  162.0238 C.ar    1  UNL1        0.0141
     10 C         142.0734  138.1928  163.4642 C.ar    1  UNL1        0.0539
     11 CL        141.5305  137.1121  164.3516 Cl      1  UNL1       -0.0826
     12 F         144.1195  138.5082  166.1691 F       1  UNL1       -0.2354
     13 C         142.9182  139.3293  166.5336 C.3     1  UNL1        0.1808
     14 C         142.6184  139.6215  167.9739 C.3     1  UNL1        0.1082
     15 N         141.4172  140.4426  168.3383 N.3     1  UNL1       -0.2674
     16 C         140.5157  140.9714  167.2624 C.3     1  UNL1        0.0727
     17 C         140.8155  140.6792  165.8220 C.3     1  UNL1        0.0245
     18 C         142.0167  139.8581  165.4576 C.3     1  UNL1        0.0586
     19 C         141.1174  140.7349  169.7788 C.3     1  UNL1        0.1173
     20 C         140.1399  140.2075  170.7869 C.3     1  UNL1        0.1606
     21 O         140.6935  141.1483  171.8158 O.3     1  UNL1       -0.3507
     22 C         141.6710  141.6756  170.8076 C.3     1  UNL1        0.1606
     23 N         144.5447  142.2232  158.4743 N.pl3   1  UNL1       -0.2794
     24 H         144.3542  143.1678  158.6760 H       1  UNL1        0.1552
     25 C         145.3777  141.8647  157.2796 C.ar    1  UNL1        0.1001
     26 C         144.9544  140.9836  156.1418 C.ar    1  UNL1        0.1372
     27 N         146.0954  140.8986  155.1719 N.ar    1  UNL1       -0.1656
     28 N         147.2240  141.7272  155.7101 N.ar    1  UNL1       -0.2409
     29 C         146.7804  142.3243  157.0127 C.ar    1  UNL1        0.1497
     30 CL        147.5964  143.2231  157.8938 Cl      1  UNL1       -0.0603
     31 C         148.5614  141.9242  155.0600 C.3     1  UNL1        0.1063
     32 C         150.0396  141.6717  155.0271 C.3     1  UNL1        0.0264
     33 C         149.3995  142.5177  153.9667 C.3     1  UNL1        0.0264
@<TRIPOS>BOND
     1    12    13    1
     2    13    14    1
     3    14    15    1
     4    15    19    1
     5    19    20    1
     6    20    21    1
     7    21    22    1
     8    15    16    1
     9    16    17    1
    10    17    18    1
    11    18     1    1
    12     1     2   ar
    13     2     3   ar
    14     3     4   ar
    15     4     5   ar
    16     5    23    1
    17    23    25    1
    18    25    26   ar
    19    26    27   ar
    20    27    28   ar
    21    28    31    1
    22    31    32    1
    23    32    33    1
    24    28    29   ar
    25    29    30    1
    26     5     6   ar
    27     6     7   ar
    28     7     8   ar
    29     8     9   ar
    30     9    10   ar
    31    10    11    1
    32    18    13    1
    33    10     1   ar
    34    22    19    1
    35     8     3   ar
    36    29    25   ar
    37    33    31    1
    38    23    24    1
@<TRIPOS>MOLECULE
*****
 33 38 0 0 0
SMALL
GASTEIGER

@<TRIPOS>ATOM
      1 C         142.8861  142.4639  164.1229 C.ar    1  UNL1       -0.0077
      2 C         142.6980  141.2510  163.2607 C.ar    1  UNL1        0.0159
      3 C         143.1558  141.2679  161.8323 C.ar    1  UNL1        0.0854
      4 N         142.9677  140.0550  160.9701 N.ar    1  UNL1       -0.2136
      5 C         143.4255  140.0718  159.5418 C.ar    1  UNL1        0.2208
      6 N         144.0713  141.3016  158.9757 N.ar    1  UNL1       -0.2120
      7 C         144.2594  142.5145  159.8379 C.ar    1  UNL1        0.1033
      8 C         143.8016  142.4976  161.2662 C.ar    1  UNL1        0.0378
      9 C         143.9897  143.7106  162.1285 C.ar    1  UNL1        0.0141
     10 C         143.5319  143.6937  163.5568 C.ar    1  UNL1        0.0539
     11 CL        143.7200  144.9067  164.4191 Cl      1  UNL1       -0.0826
     12 F         140.0141  143.0249  164.7843 F       1  UNL1       -0.2354
     13 C         140.9923  142.7276  165.8820 C.3     1  UNL1        0.1808
     14 C         140.5345  142.7108  167.3103 C.3     1  UNL1        0.1082
     15 N         141.5126  142.4134  168.4079 N.3     1  UNL1       -0.2674
     16 C         142.9486  142.1329  168.0772 C.3     1  UNL1        0.0727
     17 C         143.4064  142.1497  166.6489 C.3     1  UNL1        0.0245
     18 C         142.4283  142.4471  165.5513 C.3     1  UNL1        0.0586
     19 C         141.0548  142.3966  169.8363 C.3     1  UNL1        0.1173
     20 C         139.8348  142.8770  170.5649 C.3     1  UNL1        0.1606
     21 O         140.4075  142.3727  171.8563 O.3     1  UNL1       -0.3507
     22 C         141.6275  141.8923  171.1277 C.3     1  UNL1        0.1606
     23 N         143.2374  138.8589  158.6795 N.pl3   1  UNL1       -0.2794
     24 H         143.9981  138.2607  158.4988 H       1  UNL1        0.1552
     25 C         141.8902  138.5575  158.0927 C.ar    1  UNL1        0.1001
     26 C         140.5823  138.5868  158.8265 C.ar    1  UNL1        0.1372
     27 N         139.4982  138.2212  157.8564 N.ar    1  UNL1       -0.1656
     28 N         140.1362  137.9660  156.5230 N.ar    1  UNL1       -0.2409
     29 C         141.6145  138.1738  156.6691 C.ar    1  UNL1        0.1497
     30 CL        142.6375  138.0242  155.5823 Cl      1  UNL1       -0.0603
     31 C         139.4213  137.5721  155.2645 C.3     1  UNL1        0.1063
     32 C         139.4587  137.0571  153.8561 C.3     1  UNL1        0.0264
     33 C         138.1459  137.4048  154.4930 C.3     1  UNL1        0.0264
@<TRIPOS>BOND
     1    12    13    1
     2    13    14    1
     3    14    15    1
     4    15    19    1
     5    19    20    1
     6    20    21    1
     7    21    22    1
     8    15    16    1
     9    16    17    1
    10    17    18    1
    11    18     1    1
    12     1     2   ar
    13     2     3   ar
    14     3     4   ar
    15     4     5   ar
    16     5    23    1
    17    23    25    1
    18    25    26   ar
    19    26    27   ar
    20    27    28   ar
    21    28    31    1
    22    31    32    1
    23    32    33    1
    24    28    29   ar
    25    29    30    1
    26     5     6   ar
    27     6     7   ar
    28     7     8   ar
    29     8     9   ar
    30     9    10   ar
    31    10    11    1
    32    18    13    1
    33    10     1   ar
    34    22    19    1
    35     8     3   ar
    36    29    25   ar
    37    33    31    1
    38    23    24    1
@<TRIPOS>MOLECULE
*****
 33 38 0 0 0
SMALL
GASTEIGER

@<TRIPOS>ATOM
      1 C         142.1596  139.3216  164.0365 C.ar    1  UNL1       -0.0077
      2 C         142.8169  140.3525  163.1676 C.ar    1  UNL1        0.0159
      3 C         143.0861  140.0541  161.7224 C.ar    1  UNL1        0.0854
      4 N         143.7435  141.0850  160.8535 N.ar    1  UNL1       -0.2136
      5 C         144.0126  140.7865  159.4084 C.ar    1  UNL1        0.2208
      6 N         143.6244  139.4571  158.8322 N.ar    1  UNL1       -0.2120
      7 C         142.9671  138.4262  159.7011 C.ar    1  UNL1        0.1033
      8 C         142.6979  138.7247  161.1462 C.ar    1  UNL1        0.0378
      9 C         142.0406  137.6937  162.0152 C.ar    1  UNL1        0.0141
     10 C         141.7714  137.9922  163.4603 C.ar    1  UNL1        0.0539
     11 CL        141.1140  136.9613  164.3294 Cl      1  UNL1       -0.0826
     12 F         144.1070  138.4350  166.1393 F       1  UNL1       -0.2354
     13 C         142.8641  139.1768  166.5331 C.3     1  UNL1        0.1808
     14 C         142.5950  139.4752  167.9782 C.3     1  UNL1        0.1082
     15 N         141.3521  140.2169  168.3720 N.3     1  UNL1       -0.2674
     16 C         140.3784  140.6603  167.3206 C.3     1  UNL1        0.0727
     17 C         140.6475  140.3618  165.8755 C.3     1  UNL1        0.0245
     18 C         141.8904  139.6201  165.4817 C.3     1  UNL1        0.0586
     19 C         141.0829  140.5154  169.8172 C.3     1  UNL1        0.1173
     20 C         141.7134  141.3980  170.8533 C.3     1  UNL1        0.1606
     21 O         140.7022  140.9374  171.8610 O.3     1  UNL1       -0.3507
     22 C         140.0717  140.0549  170.8248 C.3     1  UNL1        0.1606
     23 N         144.6700  141.8174  158.5394 N.pl3   1  UNL1       -0.2794
     24 H         145.6458  141.9427  158.5764 H       1  UNL1        0.1552
     25 C         143.8406  142.6574  157.6139 C.ar    1  UNL1        0.1001
     26 C         143.8964  142.6358  156.1151 C.ar    1  UNL1        0.1372
     27 N         142.9000  143.6316  155.5997 N.ar    1  UNL1       -0.1656
     28 N         142.2284  144.2687  156.7799 N.ar    1  UNL1       -0.2409
     29 C         142.8097  143.6666  158.0248 C.ar    1  UNL1        0.1497
     30 CL        142.4272  144.0130  159.4332 Cl      1  UNL1       -0.0603
     31 C         141.1626  145.3228  156.7250 C.3     1  UNL1        0.1063
     32 C         140.1402  146.1737  157.4183 C.3     1  UNL1        0.0264
     33 C         140.3390  146.2975  155.9367 C.3     1  UNL1        0.0264
@<TRIPOS>BOND
     1    12    13    1
     2    13    14    1
     3    14    15    1
     4    15    19    1
     5    19    20    1
     6    20    21    1
     7    21    22    1
     8    15    16    1
     9    16    17    1
    10    17    18    1
    11    18     1    1
    12     1     2   ar
    13     2     3   ar
    14     3     4   ar
    15     4     5   ar
    16     5    23    1
    17    23    25    1
    18    25    26   ar
    19    26    27   ar
    20    27    28   ar
    21    28    31    1
    22    31    32    1
    23    32    33    1
    24    28    29   ar
    25    29    30    1
    26     5     6   ar
    27     6     7   ar
    28     7     8   ar
    29     8     9   ar
    30     9    10   ar
    31    10    11    1
    32    18    13    1
    33    10     1   ar
    34    22    19    1
    35     8     3   ar
    36    29    25   ar
    37    33    31    1
    38    23    24    1
@<TRIPOS>MOLECULE
*****
 33 38 0 0 0
SMALL
GASTEIGER

@<TRIPOS>ATOM
      1 C         139.9231  139.6238  164.1563 C.ar    1  UNL1       -0.0077
      2 C         139.3481  140.5476  163.1238 C.ar    1  UNL1        0.0159
      3 C         139.2293  140.0977  161.6978 C.ar    1  UNL1        0.0854
      4 N         138.6544  141.0214  160.6653 N.ar    1  UNL1       -0.2136
      5 C         138.5356  140.5715  159.2394 C.ar    1  UNL1        0.2208
      6 N         138.9919  139.1978  158.8459 N.ar    1  UNL1       -0.2120
      7 C         139.5668  138.2741  159.8783 C.ar    1  UNL1        0.1033
      8 C         139.6856  138.7240  161.3043 C.ar    1  UNL1        0.0378
      9 C         140.2606  137.8002  162.3368 C.ar    1  UNL1        0.0141
     10 C         140.3793  138.2501  163.7628 C.ar    1  UNL1        0.0539
     11 CL        140.9544  137.3263  164.7953 Cl      1  UNL1       -0.0826
     12 F         137.9155  138.7098  166.1896 F       1  UNL1       -0.2354
     13 C         139.0381  139.6167  166.5990 C.3     1  UNL1        0.1808
     14 C         139.1568  140.0665  168.0250 C.3     1  UNL1        0.1082
     15 N         140.2793  140.9733  168.4343 N.3     1  UNL1       -0.2674
     16 C         141.2831  141.4303  167.4177 C.3     1  UNL1        0.0727
     17 C         141.1644  140.9805  165.9917 C.3     1  UNL1        0.0245
     18 C         140.0419  140.0737  165.5824 C.3     1  UNL1        0.0586
     19 C         140.3981  141.4232  169.8604 C.3     1  UNL1        0.1173
     20 C         139.8954  142.5968  170.6478 C.3     1  UNL1        0.1606
     21 O         140.5661  142.0594  171.8771 O.3     1  UNL1       -0.3507
     22 C         141.0688  140.8858  171.0897 C.3     1  UNL1        0.1606
     23 N         137.9606  141.4953  158.2068 N.pl3   1  UNL1       -0.2794
     24 H         137.0765  141.3079  157.8163 H       1  UNL1        0.1552
     25 C         138.7326  142.7047  157.7693 C.ar    1  UNL1        0.1001
     26 C         140.0236  143.1881  158.3607 C.ar    1  UNL1        0.1372
     27 N         140.4381  144.4251  157.6205 N.ar    1  UNL1       -0.1656
     28 N         139.4033  144.7063  156.5716 N.ar    1  UNL1       -0.2409
     29 C         138.3493  143.6430  156.6636 C.ar    1  UNL1        0.1497
     30 CL        137.1266  143.5367  155.8012 Cl      1  UNL1       -0.0603
     31 C         139.4196  145.8499  155.6011 C.3     1  UNL1        0.1063
     32 C         140.0284  146.5396  154.4163 C.3     1  UNL1        0.0264
     33 C         138.8392  147.1410  155.1050 C.3     1  UNL1        0.0264
@<TRIPOS>BOND
     1    12    13    1
     2    13    14    1
     3    14    15    1
     4    15    19    1
     5    19    20    1
     6    20    21    1
     7    21    22    1
     8    15    16    1
     9    16    17    1
    10    17    18    1
    11    18     1    1
    12     1     2   ar
    13     2     3   ar
    14     3     4   ar
    15     4     5   ar
    16     5    23    1
    17    23    25    1
    18    25    26   ar
    19    26    27   ar
    20    27    28   ar
    21    28    31    1
    22    31    32    1
    23    32    33    1
    24    28    29   ar
    25    29    30    1
    26     5     6   ar
    27     6     7   ar
    28     7     8   ar
    29     8     9   ar
    30     9    10   ar
    31    10    11    1
    32    18    13    1
    33    10     1   ar
    34    22    19    1
    35     8     3   ar
    36    29    25   ar
    37    33    31    1
    38    23    24    1
@<TRIPOS>MOLECULE
*****
 33 38 0 0 0
SMALL
GASTEIGER

@<TRIPOS>ATOM
      1 C         139.7804  140.3180  163.9057 C.ar    1  UNL1       -0.0077
      2 C         140.9283  139.6871  163.1748 C.ar    1  UNL1        0.0159
      3 C         140.7994  139.3585  161.7169 C.ar    1  UNL1        0.0854
      4 N         141.9473  138.7276  160.9860 N.ar    1  UNL1       -0.2136
      5 C         141.8184  138.3991  159.5281 C.ar    1  UNL1        0.2208
      6 N         140.5417  138.7015  158.8012 N.ar    1  UNL1       -0.2120
      7 C         139.3938  139.3324  159.5321 C.ar    1  UNL1        0.1033
      8 C         139.5227  139.6610  160.9899 C.ar    1  UNL1        0.0378
      9 C         138.3748  140.2920  161.7209 C.ar    1  UNL1        0.0141
     10 C         138.5037  140.6205  163.1788 C.ar    1  UNL1        0.0539
     11 CL        137.3558  141.2515  163.9097 Cl      1  UNL1       -0.0826
     12 F         138.8656  138.3469  165.9740 F       1  UNL1       -0.2354
     13 C         139.4519  139.6610  166.3978 C.3     1  UNL1        0.1808
     14 C         139.5807  139.9895  167.8557 C.3     1  UNL1        0.1082
     15 N         140.1669  141.3036  168.2794 N.3     1  UNL1       -0.2674
     16 C         140.6242  142.2891  167.2453 C.3     1  UNL1        0.0727
     17 C         140.4954  141.9607  165.7874 C.3     1  UNL1        0.0245
     18 C         139.9092  140.6466  165.3637 C.3     1  UNL1        0.0586
     19 C         140.2957  141.6321  169.7374 C.3     1  UNL1        0.1173
     20 C         139.9095  142.7966  170.6004 C.3     1  UNL1        0.1606
     21 O         140.4779  142.0967  171.7992 O.3     1  UNL1       -0.3507
     22 C         140.8641  140.9322  170.9361 C.3     1  UNL1        0.1606
     23 N         142.9663  137.7681  158.7971 N.pl3   1  UNL1       -0.2794
     24 H         143.8584  137.7393  159.2126 H       1  UNL1        0.1552
     25 C         142.7550  137.1809  157.4331 C.ar    1  UNL1        0.1001
     26 C         142.3418  137.9340  156.2034 C.ar    1  UNL1        0.1372
     27 N         142.2512  136.9561  155.0695 N.ar    1  UNL1       -0.1656
     28 N         142.6084  135.5987  155.5985 N.ar    1  UNL1       -0.2409
     29 C         142.9198  135.7376  157.0592 C.ar    1  UNL1        0.1497
     30 CL        143.3248  134.6281  157.9838 Cl      1  UNL1       -0.0603
     31 C         142.6474  134.3258  154.8059 C.3     1  UNL1        0.1063
     32 C         142.9914  132.8694  154.7034 C.3     1  UNL1        0.0264
     33 C         142.3711  133.5775  153.5356 C.3     1  UNL1        0.0264
@<TRIPOS>BOND
     1    12    13    1
     2    13    14    1
     3    14    15    1
     4    15    19    1
     5    19    20    1
     6    20    21    1
     7    21    22    1
     8    15    16    1
     9    16    17    1
    10    17    18    1
    11    18     1    1
    12     1     2   ar
    13     2     3   ar
    14     3     4   ar
    15     4     5   ar
    16     5    23    1
    17    23    25    1
    18    25    26   ar
    19    26    27   ar
    20    27    28   ar
    21    28    31    1
    22    31    32    1
    23    32    33    1
    24    28    29   ar
    25    29    30    1
    26     5     6   ar
    27     6     7   ar
    28     7     8   ar
    29     8     9   ar
    30     9    10   ar
    31    10    11    1
    32    18    13    1
    33    10     1   ar
    34    22    19    1
    35     8     3   ar
    36    29    25   ar
    37    33    31    1
    38    23    24    1
@<TRIPOS>MOLECULE
*****
 33 38 0 0 0
SMALL
GASTEIGER

@<TRIPOS>ATOM
      1 C         139.8685  141.9576  163.8775 C.ar    1  UNL1       -0.0077
      2 C         140.8929  141.3628  162.9572 C.ar    1  UNL1        0.0159
      3 C         140.7685  141.5514  161.4743 C.ar    1  UNL1        0.0854
      4 N         141.7929  140.9566  160.5541 N.ar    1  UNL1       -0.2136
      5 C         141.6685  141.1452  159.0712 C.ar    1  UNL1        0.2208
      6 N         140.5197  141.9287  158.5086 N.ar    1  UNL1       -0.2120
      7 C         139.4954  142.5235  159.4288 C.ar    1  UNL1        0.1033
      8 C         139.6198  142.3349  160.9117 C.ar    1  UNL1        0.0378
      9 C         138.5954  142.9297  161.8320 C.ar    1  UNL1        0.0141
     10 C         138.7198  142.7410  163.3148 C.ar    1  UNL1        0.0539
     11 CL        137.6954  143.3359  164.2351 Cl      1  UNL1       -0.0826
     12 F         138.9502  139.3989  165.1463 F       1  UNL1       -0.2354
     13 C         139.5337  140.4896  165.9948 C.3     1  UNL1        0.1808
     14 C         139.6581  140.3010  167.4777 C.3     1  UNL1        0.1082
     15 N         140.2416  141.3916  168.3261 N.3     1  UNL1       -0.2674
     16 C         140.7008  142.6709  167.6917 C.3     1  UNL1        0.0727
     17 C         140.5764  142.8596  166.2088 C.3     1  UNL1        0.0245
     18 C         139.9929  141.7690  165.3604 C.3     1  UNL1        0.0586
     19 C         140.3660  141.2030  169.8090 C.3     1  UNL1        0.1173
     20 C         140.8415  142.0525  170.9502 C.3     1  UNL1        0.1606
     21 O         140.5418  140.9362  171.9062 O.3     1  UNL1       -0.3507
     22 C         140.0663  140.0866  170.7650 C.3     1  UNL1        0.1606
     23 N         142.6929  140.5504  158.1509 N.pl3   1  UNL1       -0.2794
     24 H         142.5215  139.6826  157.7188 H       1  UNL1        0.1552
     25 C         143.9783  141.2779  157.8891 C.ar    1  UNL1        0.1001
     26 C         144.5510  142.3845  158.7242 C.ar    1  UNL1        0.1372
     27 N         145.8433  142.8170  158.0974 N.ar    1  UNL1       -0.1656
     28 N         146.0694  141.9777  156.8750 N.ar    1  UNL1       -0.2409
     29 C         144.9167  141.0264  156.7463 C.ar    1  UNL1        0.1497
     30 CL        144.7345  140.0034  155.6645 Cl      1  UNL1       -0.0603
     31 C         147.2421  142.0728  155.9446 C.3     1  UNL1        0.1063
     32 C         148.6484  141.6953  155.5843 C.3     1  UNL1        0.0264
     33 C         147.8671  142.6150  154.6935 C.3     1  UNL1        0.0264
@<TRIPOS>BOND
     1    12    13    1
     2    13    14    1
     3    14    15    1
     4    15    19    1
     5    19    20    1
     6    20    21    1
     7    21    22    1
     8    15    16    1
     9    16    17    1
    10    17    18    1
    11    18     1    1
    12     1     2   ar
    13     2     3   ar
    14     3     4   ar
    15     4     5   ar
    16     5    23    1
    17    23    25    1
    18    25    26   ar
    19    26    27   ar
    20    27    28   ar
    21    28    31    1
    22    31    32    1
    23    32    33    1
    24    28    29   ar
    25    29    30    1
    26     5     6   ar
    27     6     7   ar
    28     7     8   ar
    29     8     9   ar
    30     9    10   ar
    31    10    11    1
    32    18    13    1
    33    10     1   ar
    34    22    19    1
    35     8     3   ar
    36    29    25   ar
    37    33    31    1
    38    23    24    1
@<TRIPOS>MOLECULE
*****
 33 38 0 0 0
SMALL
GASTEIGER

@<TRIPOS>ATOM
      1 C         142.1562  142.2615  163.9302 C.ar    1  UNL1       -0.0077
      2 C         141.4497  141.3013  163.0198 C.ar    1  UNL1        0.0159
      3 C         141.7248  141.3252  161.5454 C.ar    1  UNL1        0.0854
      4 N         141.0183  140.3650  160.6349 N.ar    1  UNL1       -0.2136
      5 C         141.2935  140.3889  159.1606 C.ar    1  UNL1        0.2208
      6 N         142.2752  141.3729  158.5967 N.ar    1  UNL1       -0.2120
      7 C         142.9817  142.3330  159.5072 C.ar    1  UNL1        0.1033
      8 C         142.7065  142.3092  160.9815 C.ar    1  UNL1        0.0378
      9 C         143.4131  143.2693  161.8920 C.ar    1  UNL1        0.0141
     10 C         143.1379  143.2455  163.3663 C.ar    1  UNL1        0.0539
     11 CL        143.8445  144.2056  164.2768 Cl      1  UNL1       -0.0826
     12 F         139.6771  143.5571  165.0145 F       1  UNL1       -0.2354
     13 C         140.6415  142.8854  165.9468 C.3     1  UNL1        0.1808
     14 C         140.3663  142.8616  167.4211 C.3     1  UNL1        0.1082
     15 N         141.3306  142.1900  168.3532 N.3     1  UNL1       -0.2674
     16 C         142.5701  141.5422  167.8111 C.3     1  UNL1        0.0727
     17 C         142.8453  141.5660  166.3368 C.3     1  UNL1        0.0245
     18 C         141.8810  142.2376  165.4046 C.3     1  UNL1        0.0586
     19 C         141.0555  142.1661  169.8276 C.3     1  UNL1        0.1173
     20 C         141.7466  141.5871  171.0264 C.3     1  UNL1        0.1606
     21 O         140.6662  142.1325  171.9127 O.3     1  UNL1       -0.3507
     22 C         139.9751  142.7115  170.7139 C.3     1  UNL1        0.1606
     23 N         140.5869  139.4288  158.2501 N.pl3   1  UNL1       -0.2794
     24 H         139.6544  139.5983  157.9840 H       1  UNL1        0.1552
     25 C         141.3013  138.2103  157.7451 C.ar    1  UNL1        0.1001
     26 C         142.6507  137.7310  158.1915 C.ar    1  UNL1        0.1372
     27 N         142.9751  136.4816  157.4274 N.ar    1  UNL1       -0.1656
     28 N         141.8261  136.1887  156.5087 N.ar    1  UNL1       -0.2409
     29 C         140.7916  137.2571  156.7051 C.ar    1  UNL1        0.1497
     30 CL        139.4781  137.3550  155.9874 Cl      1  UNL1       -0.0603
     31 C         141.7286  135.0308  155.5602 C.3     1  UNL1        0.1063
     32 C         141.7533  134.4927  154.1602 C.3     1  UNL1        0.0264
     33 C         141.5351  133.5633  155.3172 C.3     1  UNL1        0.0264
@<TRIPOS>BOND
     1    12    13    1
     2    13    14    1
     3    14    15    1
     4    15    19    1
     5    19    20    1
     6    20    21    1
     7    21    22    1
     8    15    16    1
     9    16    17    1
    10    17    18    1
    11    18     1    1
    12     1     2   ar
    13     2     3   ar
    14     3     4   ar
    15     4     5   ar
    16     5    23    1
    17    23    25    1
    18    25    26   ar
    19    26    27   ar
    20    27    28   ar
    21    28    31    1
    22    31    32    1
    23    32    33    1
    24    28    29   ar
    25    29    30    1
    26     5     6   ar
    27     6     7   ar
    28     7     8   ar
    29     8     9   ar
    30     9    10   ar
    31    10    11    1
    32    18    13    1
    33    10     1   ar
    34    22    19    1
    35     8     3   ar
    36    29    25   ar
    37    33    31    1
    38    23    24    1
@<TRIPOS>MOLECULE
*****
 33 38 0 0 0
SMALL
GASTEIGER

@<TRIPOS>ATOM
      1 C         142.5214  140.2929  164.4251 C.ar    1  UNL1       -0.0077
      2 C         141.7881  140.8826  163.2570 C.ar    1  UNL1        0.0159
      3 C         142.1987  140.5298  161.8580 C.ar    1  UNL1        0.0854
      4 N         141.4654  141.1195  160.6899 N.ar    1  UNL1       -0.2136
      5 C         141.8760  140.7667  159.2911 C.ar    1  UNL1        0.2208
      6 N         143.0199  139.8242  159.0603 N.ar    1  UNL1       -0.2120
      7 C         143.7532  139.2345  160.2284 C.ar    1  UNL1        0.1033
      8 C         143.3426  139.5873  161.6272 C.ar    1  UNL1        0.0378
      9 C         144.0759  138.9976  162.7954 C.ar    1  UNL1        0.0141
     10 C         143.6653  139.3504  164.1943 C.ar    1  UNL1        0.0539
     11 CL        144.3986  138.7607  165.3625 Cl      1  UNL1       -0.0826
     12 F         143.7875  142.6302  165.8156 F       1  UNL1       -0.2354
     13 C         142.7439  141.8143  166.5193 C.3     1  UNL1        0.1808
     14 C         142.3333  142.1671  167.9182 C.3     1  UNL1        0.1082
     15 N         141.2897  141.3512  168.6219 N.3     1  UNL1       -0.2674
     16 C         140.6567  140.1825  167.9266 C.3     1  UNL1        0.0727
     17 C         141.0672  139.8297  166.5277 C.3     1  UNL1        0.0245
     18 C         142.1108  140.6456  165.8241 C.3     1  UNL1        0.0586
     19 C         140.8791  141.7039  170.0208 C.3     1  UNL1        0.1173
     20 C         141.1398  141.1262  171.3804 C.3     1  UNL1        0.1606
     21 O         140.2985  142.2029  171.9992 O.3     1  UNL1       -0.3507
     22 C         140.0379  142.7806  170.6397 C.3     1  UNL1        0.1606
     23 N         141.1427  141.3564  158.1229 N.pl3   1  UNL1       -0.2794
     24 H         141.6168  141.9411  157.4883 H       1  UNL1        0.1552
     25 C         139.6871  141.0552  157.9215 C.ar    1  UNL1        0.1001
     26 C         138.8379  140.1825  158.7974 C.ar    1  UNL1        0.1372
     27 N         137.4511  140.1618  158.2261 N.ar    1  UNL1       -0.1656
     28 N         137.4432  141.0217  156.9971 N.ar    1  UNL1       -0.2409
     29 C         138.8251  141.5738  156.8088 C.ar    1  UNL1        0.1497
     30 CL        139.2674  142.4847  155.7022 Cl      1  UNL1       -0.0603
     31 C         136.2610  141.2834  156.1118 C.3     1  UNL1        0.1063
     32 C         135.6325  142.0251  154.9694 C.3     1  UNL1        0.0264
     33 C         134.8419  140.9952  155.7206 C.3     1  UNL1        0.0264
@<TRIPOS>BOND
     1    12    13    1
     2    13    14    1
     3    14    15    1
     4    15    19    1
     5    19    20    1
     6    20    21    1
     7    21    22    1
     8    15    16    1
     9    16    17    1
    10    17    18    1
    11    18     1    1
    12     1     2   ar
    13     2     3   ar
    14     3     4   ar
    15     4     5   ar
    16     5    23    1
    17    23    25    1
    18    25    26   ar
    19    26    27   ar
    20    27    28   ar
    21    28    31    1
    22    31    32    1
    23    32    33    1
    24    28    29   ar
    25    29    30    1
    26     5     6   ar
    27     6     7   ar
    28     7     8   ar
    29     8     9   ar
    30     9    10   ar
    31    10    11    1
    32    18    13    1
    33    10     1   ar
    34    22    19    1
    35     8     3   ar
    36    29    25   ar
    37    33    31    1
    38    23    24    1
@<TRIPOS>MOLECULE
*****
 33 38 0 0 0
SMALL
GASTEIGER

@<TRIPOS>ATOM
      1 C         142.6023  140.5534  164.1613 C.ar    1  UNL1       -0.0077
      2 C         141.7867  141.1519  163.0539 C.ar    1  UNL1        0.0159
      3 C         142.1628  140.8985  161.6240 C.ar    1  UNL1        0.0854
      4 N         141.3472  141.4970  160.5166 N.ar    1  UNL1       -0.2136
      5 C         141.7234  141.2436  159.0868 C.ar    1  UNL1        0.2208
      6 N         142.9152  140.3917  158.7645 N.ar    1  UNL1       -0.2120
      7 C         143.7309  139.7932  159.8720 C.ar    1  UNL1        0.1033
      8 C         143.3547  140.0466  161.3017 C.ar    1  UNL1        0.0378
      9 C         144.1703  139.4481  162.4093 C.ar    1  UNL1        0.0141
     10 C         143.7941  139.7015  163.8390 C.ar    1  UNL1        0.0539
     11 CL        144.6098  139.1031  164.9466 Cl      1  UNL1       -0.0826
     12 F         143.8692  142.8179  165.6669 F       1  UNL1       -0.2354
     13 C         142.8596  141.9390  166.3440 C.3     1  UNL1        0.1808
     14 C         142.4835  142.1924  167.7737 C.3     1  UNL1        0.1082
     15 N         141.4739  141.3136  168.4507 N.3     1  UNL1       -0.2674
     16 C         140.8404  140.1813  167.6979 C.3     1  UNL1        0.0727
     17 C         141.2165  139.9279  166.2681 C.3     1  UNL1        0.0245
     18 C         142.2261  140.8068  165.5912 C.3     1  UNL1        0.0586
     19 C         141.0977  141.5670  169.8805 C.3     1  UNL1        0.1173
     20 C         140.6167  142.7576  170.6558 C.3     1  UNL1        0.1606
     21 O         140.5658  141.9252  171.9026 O.3     1  UNL1       -0.3507
     22 C         141.0468  140.7346  171.1273 C.3     1  UNL1        0.1606
     23 N         140.9077  141.8420  157.9793 N.pl3   1  UNL1       -0.2794
     24 H         140.3363  141.2657  157.4219 H       1  UNL1        0.1552
     25 C         140.9627  143.3186  157.7209 C.ar    1  UNL1        0.1001
     26 C         142.0558  144.2496  158.1551 C.ar    1  UNL1        0.1372
     27 N         141.7029  145.6298  157.6855 N.ar    1  UNL1       -0.1656
     28 N         140.3918  145.5518  156.9610 N.ar    1  UNL1       -0.2409
     29 C         139.9344  144.1235  156.9828 C.ar    1  UNL1        0.1497
     30 CL        138.6705  143.5931  156.3736 Cl      1  UNL1       -0.0603
     31 C         139.6657  146.7006  156.3261 C.3     1  UNL1        0.1063
     32 C         138.8925  147.9795  156.4552 C.3     1  UNL1        0.0264
     33 C         139.1810  147.4113  155.0973 C.3     1  UNL1        0.0264
@<TRIPOS>BOND
     1    12    13    1
     2    13    14    1
     3    14    15    1
     4    15    19    1
     5    19    20    1
     6    20    21    1
     7    21    22    1
     8    15    16    1
     9    16    17    1
    10    17    18    1
    11    18     1    1
    12     1     2   ar
    13     2     3   ar
    14     3     4   ar
    15     4     5   ar
    16     5    23    1
    17    23    25    1
    18    25    26   ar
    19    26    27   ar
    20    27    28   ar
    21    28    31    1
    22    31    32    1
    23    32    33    1
    24    28    29   ar
    25    29    30    1
    26     5     6   ar
    27     6     7   ar
    28     7     8   ar
    29     8     9   ar
    30     9    10   ar
    31    10    11    1
    32    18    13    1
    33    10     1   ar
    34    22    19    1
    35     8     3   ar
    36    29    25   ar
    37    33    31    1
    38    23    24    1
