@<TRIPOS>MOLECULE
*****
 40 43 0 0 0
SMALL
GASTEIGER

@<TRIPOS>ATOM
      1 C         140.7991  145.0694  161.3992 C.ar    1  UNL1        0.0516
      2 C         139.7532  145.5073  162.3810 C.ar    1  UNL1        0.0161
      3 C         139.5361  144.7270  163.6436 C.ar    1  UNL1        0.0215
      4 C         140.3651  143.5088  163.9243 C.ar    1  UNL1        0.1253
      5 C         141.4111  143.0709  162.9423 C.ar    1  UNL1        0.0215
      6 C         141.6281  143.8512  161.6798 C.ar    1  UNL1        0.0161
      7 O         139.4458  144.2206  158.8598 O.2     1  UNL1       -0.2525
      8 C         140.3395  145.4253  158.8669 C.2     1  UNL1        0.3045
      9 N         140.5565  146.2056  157.6044 N.am    1  UNL1       -0.2887
     10 N         141.0162  145.8497  160.1367 N.am    1  UNL1       -0.2683
     11 H         141.1430  146.9963  157.6091 H       1  UNL1        0.1510
     12 H         141.6027  146.6404  160.1413 H       1  UNL1        0.1564
     13 C         139.8798  145.7812  156.3348 C.3     1  UNL1        0.0924
     14 C         139.1183  146.7839  155.5194 C.3     1  UNL1        0.0386
     15 C         139.8491  147.6973  154.5805 C.3     1  UNL1        0.0738
     16 N         139.4668  149.1452  154.4932 N.3     1  UNL1       -0.2726
     17 C         138.8022  149.8169  155.6581 C.3     1  UNL1        0.0721
     18 C         138.4199  151.2647  155.5708 C.3     1  UNL1        0.0174
     19 C         138.7022  152.0408  154.3186 C.3     1  UNL1        0.0029
     20 C         139.3667  151.3691  153.1537 C.3     1  UNL1        0.0174
     21 C         139.7490  149.9213  153.2410 C.3     1  UNL1        0.0721
     22 S         140.1480  142.7285  165.1868 S.O2    1  UNL1        0.0736
     23 O         139.9205  144.0068  165.9378 O.2     1  UNL1       -0.1499
     24 O         140.3756  141.4501  164.4358 O.2     1  UNL1       -0.1499
     25 N         139.9310  141.9482  166.4494 N.pl3   1  UNL1       -0.2149
     26 H         139.2265  141.2616  166.4888 H       1  UNL1        0.1737
     27 C         140.7874  142.2139  167.6519 C.ar    1  UNL1        0.0678
     28 C         140.3203  143.1705  168.7087 C.ar    1  UNL1        0.0160
     29 C         141.1767  143.4363  169.9112 C.ar    1  UNL1        0.0013
     30 C         142.5002  142.7455  170.0568 C.ar    1  UNL1        0.0002
     31 C         142.9673  141.7889  169.0000 C.ar    1  UNL1        0.0045
     32 C         142.1109  141.5232  167.7975 C.ar    1  UNL1        0.0535
     33 C         142.5779  140.5667  166.7407 C.2     1  UNL1        0.1968
     34 O         142.0971  139.1458  166.7497 O.2     1  UNL1       -0.2865
     35 C         143.5258  141.0309  165.6749 C.ar    1  UNL1        0.0390
     36 C         143.8976  142.4812  165.5817 C.ar    1  UNL1        0.0032
     37 C         144.8454  142.9455  164.5159 C.ar    1  UNL1        0.0001
     38 C         145.4216  141.9596  163.5433 C.ar    1  UNL1        0.0000
     39 C         145.0498  140.5093  163.6365 C.ar    1  UNL1        0.0001
     40 C         144.1020  140.0450  164.7022 C.ar    1  UNL1        0.0032
@<TRIPOS>BOND
     1     7     8    2
     2     8     9   am
     3     9    13    1
     4    13    14    1
     5    14    15    1
     6    15    16    1
     7    16    17    1
     8    17    18    1
     9    18    19    1
    10    19    20    1
    11    20    21    1
    12     8    10   am
    13    10     1    1
    14     1     2   ar
    15     2     3   ar
    16     3     4   ar
    17     4    22    1
    18    22    23    2
    19    22    24    2
    20    22    25    1
    21    25    27    1
    22    27    28   ar
    23    28    29   ar
    24    29    30   ar
    25    30    31   ar
    26    31    32   ar
    27    32    33    1
    28    33    34    2
    29    33    35    1
    30    35    36   ar
    31    36    37   ar
    32    37    38   ar
    33    38    39   ar
    34    39    40   ar
    35     4     5   ar
    36     5     6   ar
    37    21    16    1
    38     6     1   ar
    39    32    27   ar
    40    40    35   ar
    41     9    11    1
    42    10    12    1
    43    25    26    1
@<TRIPOS>MOLECULE
*****
 40 43 0 0 0
SMALL
GASTEIGER

@<TRIPOS>ATOM
      1 C         141.1197  145.0859  161.0189 C.ar    1  UNL1        0.0516
      2 C         141.5926  143.6825  161.2574 C.ar    1  UNL1        0.0161
      3 C         141.1890  142.9572  162.5069 C.ar    1  UNL1        0.0215
      4 C         140.3125  143.6354  163.5178 C.ar    1  UNL1        0.1253
      5 C         139.8396  145.0388  163.2792 C.ar    1  UNL1        0.0215
      6 C         140.2432  145.7640  162.0298 C.ar    1  UNL1        0.0161
      7 O         139.7927  144.4309  158.4092 O.2     1  UNL1       -0.2525
      8 C         140.8598  145.4836  158.4646 C.2     1  UNL1        0.3045
      9 N         141.2635  146.2088  157.2152 N.am    1  UNL1       -0.2887
     10 N         141.5233  145.8111  159.7695 N.am    1  UNL1       -0.2683
     11 H         141.9638  146.8997  157.2515 H       1  UNL1        0.1510
     12 H         142.2237  146.5020  159.8058 H       1  UNL1        0.1564
     13 C         140.6000  145.8813  155.9104 C.3     1  UNL1        0.0924
     14 C         139.2836  146.5093  155.5599 C.3     1  UNL1        0.0386
     15 C         138.8868  147.8157  156.1811 C.3     1  UNL1        0.0738
     16 N         138.9875  149.0848  155.3877 N.3     1  UNL1       -0.2726
     17 C         139.6763  149.0836  154.0552 C.3     1  UNL1        0.0721
     18 C         139.7770  150.3526  153.2619 C.3     1  UNL1        0.0174
     19 C         139.1889  151.6228  153.8010 C.3     1  UNL1        0.0029
     20 C         138.5001  151.6240  155.1335 C.3     1  UNL1        0.0174
     21 C         138.3995  150.3550  155.9268 C.3     1  UNL1        0.0721
     22 S         139.9088  142.9102  164.7672 S.O2    1  UNL1        0.0736
     23 O         138.9515  144.0159  165.0998 O.2     1  UNL1       -0.1499
     24 O         140.8662  141.8044  164.4347 O.2     1  UNL1       -0.1499
     25 N         139.5052  142.1849  166.0167 N.pl3   1  UNL1       -0.2149
     26 H         138.5516  142.0588  166.2264 H       1  UNL1        0.1737
     27 C         140.5545  141.6519  166.9467 C.ar    1  UNL1        0.0678
     28 C         141.6098  142.5685  167.4910 C.ar    1  UNL1        0.0160
     29 C         142.6591  142.0355  168.4210 C.ar    1  UNL1        0.0013
     30 C         142.6531  140.5859  168.8067 C.ar    1  UNL1        0.0002
     31 C         141.5977  139.6694  168.2624 C.ar    1  UNL1        0.0045
     32 C         140.5484  140.2024  167.3325 C.ar    1  UNL1        0.0535
     33 C         139.4931  139.2859  166.7882 C.2     1  UNL1        0.1968
     34 O         138.3016  138.9319  167.6278 O.2     1  UNL1       -0.2865
     35 C         139.6293  138.7234  165.4043 C.ar    1  UNL1        0.0390
     36 C         140.8416  137.9200  165.0372 C.ar    1  UNL1        0.0032
     37 C         140.9778  137.3575  163.6534 C.ar    1  UNL1        0.0001
     38 C         139.9017  137.5984  162.6367 C.ar    1  UNL1        0.0000
     39 C         138.6894  138.4018  163.0037 C.ar    1  UNL1        0.0001
     40 C         138.5531  138.9643  164.3875 C.ar    1  UNL1        0.0032
@<TRIPOS>BOND
     1     7     8    2
     2     8     9   am
     3     9    13    1
     4    13    14    1
     5    14    15    1
     6    15    16    1
     7    16    17    1
     8    17    18    1
     9    18    19    1
    10    19    20    1
    11    20    21    1
    12     8    10   am
    13    10     1    1
    14     1     2   ar
    15     2     3   ar
    16     3     4   ar
    17     4    22    1
    18    22    23    2
    19    22    24    2
    20    22    25    1
    21    25    27    1
    22    27    28   ar
    23    28    29   ar
    24    29    30   ar
    25    30    31   ar
    26    31    32   ar
    27    32    33    1
    28    33    34    2
    29    33    35    1
    30    35    36   ar
    31    36    37   ar
    32    37    38   ar
    33    38    39   ar
    34    39    40   ar
    35     4     5   ar
    36     5     6   ar
    37    21    16    1
    38     6     1   ar
    39    32    27   ar
    40    40    35   ar
    41     9    11    1
    42    10    12    1
    43    25    26    1
@<TRIPOS>MOLECULE
*****
 40 43 0 0 0
SMALL
GASTEIGER

@<TRIPOS>ATOM
      1 C         142.7878  138.5891  158.6202 C.ar    1  UNL1        0.0516
      2 C         142.1914  139.9618  158.7204 C.ar    1  UNL1        0.0161
      3 C         141.6501  140.4505  160.0313 C.ar    1  UNL1        0.0215
      4 C         141.7053  139.5665  161.2419 C.ar    1  UNL1        0.1253
      5 C         142.3018  138.1938  161.1416 C.ar    1  UNL1        0.0215
      6 C         142.8430  137.7051  159.8308 C.ar    1  UNL1        0.0161
      7 O         141.0805  136.8894  156.8325 O.2     1  UNL1       -0.2525
      8 C         142.4754  137.2506  156.4155 C.2     1  UNL1        0.3045
      9 N         143.0166  136.7620  155.1047 N.am    1  UNL1       -0.2887
     10 N         143.3290  138.1005  157.3094 N.am    1  UNL1       -0.2683
     11 H         143.9321  136.9990  154.8310 H       1  UNL1        0.1510
     12 H         144.2445  138.3376  157.0357 H       1  UNL1        0.1564
     13 C         142.1629  135.9121  154.2109 C.3     1  UNL1        0.0924
     14 C         142.2738  134.4172  154.2676 C.3     1  UNL1        0.0386
     15 C         141.8299  133.6783  155.4951 C.3     1  UNL1        0.0738
     16 N         142.8291  132.9163  156.3143 N.3     1  UNL1       -0.2726
     17 C         143.8613  133.6538  157.1146 C.3     1  UNL1        0.0721
     18 C         144.8605  132.8918  157.9337 C.3     1  UNL1        0.0174
     19 C         144.8274  131.3923  157.9526 C.3     1  UNL1        0.0029
     20 C         143.7951  130.6548  157.1523 C.3     1  UNL1        0.0174
     21 C         142.7960  131.4168  156.3332 C.3     1  UNL1        0.0721
     22 S         141.1641  140.0551  162.5527 S.O2    1  UNL1        0.0736
     23 O         140.2345  138.8792  162.6072 O.2     1  UNL1       -0.1499
     24 O         142.0938  141.2310  162.4982 O.2     1  UNL1       -0.1499
     25 N         140.6228  140.5437  163.8636 N.pl3   1  UNL1       -0.2149
     26 H         140.8547  140.0746  164.6975 H       1  UNL1        0.1737
     27 C         139.7284  141.7472  163.9039 C.ar    1  UNL1        0.0678
     28 C         138.7116  141.9625  162.8222 C.ar    1  UNL1        0.0160
     29 C         137.8172  143.1660  162.8625 C.ar    1  UNL1        0.0013
     30 C         137.9395  144.1541  163.9845 C.ar    1  UNL1        0.0002
     31 C         138.9562  143.9388  165.0660 C.ar    1  UNL1        0.0045
     32 C         139.8507  142.7353  165.0257 C.ar    1  UNL1        0.0535
     33 C         140.8674  142.5200  166.1073 C.2     1  UNL1        0.1968
     34 O         142.3272  142.6945  165.8099 O.2     1  UNL1       -0.2865
     35 C         140.4243  142.1301  167.4864 C.ar    1  UNL1        0.0390
     36 C         139.8803  140.7551  167.7387 C.ar    1  UNL1        0.0032
     37 C         139.4373  140.3652  169.1176 C.ar    1  UNL1        0.0001
     38 C         139.5382  141.3503  170.2443 C.ar    1  UNL1        0.0000
     39 C         140.0821  142.7252  169.9920 C.ar    1  UNL1        0.0001
     40 C         140.5252  143.1151  168.6131 C.ar    1  UNL1        0.0032
@<TRIPOS>BOND
     1     7     8    2
     2     8     9   am
     3     9    13    1
     4    13    14    1
     5    14    15    1
     6    15    16    1
     7    16    17    1
     8    17    18    1
     9    18    19    1
    10    19    20    1
    11    20    21    1
    12     8    10   am
    13    10     1    1
    14     1     2   ar
    15     2     3   ar
    16     3     4   ar
    17     4    22    1
    18    22    23    2
    19    22    24    2
    20    22    25    1
    21    25    27    1
    22    27    28   ar
    23    28    29   ar
    24    29    30   ar
    25    30    31   ar
    26    31    32   ar
    27    32    33    1
    28    33    34    2
    29    33    35    1
    30    35    36   ar
    31    36    37   ar
    32    37    38   ar
    33    38    39   ar
    34    39    40   ar
    35     4     5   ar
    36     5     6   ar
    37    21    16    1
    38     6     1   ar
    39    32    27   ar
    40    40    35   ar
    41     9    11    1
    42    10    12    1
    43    25    26    1
@<TRIPOS>MOLECULE
*****
 40 43 0 0 0
SMALL
GASTEIGER

@<TRIPOS>ATOM
      1 C         142.7262  143.5551  161.0118 C.ar    1  UNL1        0.0516
      2 C         142.6132  144.4048  162.2427 C.ar    1  UNL1        0.0161
      3 C         142.6750  143.7701  163.6005 C.ar    1  UNL1        0.0215
      4 C         142.8498  142.2857  163.7272 C.ar    1  UNL1        0.1253
      5 C         142.9628  141.4360  162.4962 C.ar    1  UNL1        0.0215
      6 C         142.9010  142.0707  161.1385 C.ar    1  UNL1        0.0161
      7 O         140.0686  144.1605  159.7586 O.2     1  UNL1       -0.2525
      8 C         141.3357  144.4925  159.0275 C.2     1  UNL1        0.3045
      9 N         141.2739  145.1272  157.6698 N.am    1  UNL1       -0.2887
     10 N         142.6645  144.1898  159.6542 N.am    1  UNL1       -0.2683
     11 H         142.1055  145.3451  157.1900 H       1  UNL1        0.1510
     12 H         143.4961  144.4077  159.1743 H       1  UNL1        0.1564
     13 C         139.9451  145.4300  157.0432 C.3     1  UNL1        0.0924
     14 C         139.5513  146.8513  156.7695 C.3     1  UNL1        0.0386
     15 C         139.1278  147.2598  155.3898 C.3     1  UNL1        0.0738
     16 N         139.1422  148.7079  154.9987 N.3     1  UNL1       -0.2726
     17 C         138.5135  149.7331  155.8952 C.3     1  UNL1        0.0721
     18 C         138.5279  151.1811  155.5041 C.3     1  UNL1        0.0174
     19 C         139.1710  151.6039  154.2166 C.3     1  UNL1        0.0029
     20 C         139.7997  150.5787  153.3202 C.3     1  UNL1        0.0174
     21 C         139.7853  149.1307  153.7112 C.3     1  UNL1        0.0721
     22 S         142.9115  141.6510  165.0849 S.O2    1  UNL1        0.0736
     23 O         142.3958  140.3662  164.5077 O.2     1  UNL1       -0.1499
     24 O         143.4273  142.9358  165.6621 O.2     1  UNL1       -0.1499
     25 N         142.9733  141.0162  166.4426 N.pl3   1  UNL1       -0.2149
     26 H         143.4077  140.1402  166.5571 H       1  UNL1        0.1737
     27 C         142.3731  141.7162  167.6258 C.ar    1  UNL1        0.0678
     28 C         143.2607  142.2512  168.7103 C.ar    1  UNL1        0.0160
     29 C         142.6605  142.9512  169.8934 C.ar    1  UNL1        0.0013
     30 C         141.1728  143.1161  169.9921 C.ar    1  UNL1        0.0002
     31 C         140.2854  142.5810  168.9076 C.ar    1  UNL1        0.0045
     32 C         140.8855  141.8810  167.7245 C.ar    1  UNL1        0.0535
     33 C         139.9981  141.3460  166.6400 C.2     1  UNL1        0.1968
     34 O         139.7751  139.8680  166.5143 O.2     1  UNL1       -0.2865
     35 C         139.3336  142.2889  165.6811 C.ar    1  UNL1        0.0390
     36 C         138.3039  141.7769  164.7180 C.ar    1  UNL1        0.0032
     37 C         137.6394  142.7198  163.7591 C.ar    1  UNL1        0.0001
     38 C         138.0046  144.1746  163.7635 C.ar    1  UNL1        0.0000
     39 C         139.0342  144.6866  164.7266 C.ar    1  UNL1        0.0001
     40 C         139.6987  143.7438  165.6855 C.ar    1  UNL1        0.0032
@<TRIPOS>BOND
     1     7     8    2
     2     8     9   am
     3     9    13    1
     4    13    14    1
     5    14    15    1
     6    15    16    1
     7    16    17    1
     8    17    18    1
     9    18    19    1
    10    19    20    1
    11    20    21    1
    12     8    10   am
    13    10     1    1
    14     1     2   ar
    15     2     3   ar
    16     3     4   ar
    17     4    22    1
    18    22    23    2
    19    22    24    2
    20    22    25    1
    21    25    27    1
    22    27    28   ar
    23    28    29   ar
    24    29    30   ar
    25    30    31   ar
    26    31    32   ar
    27    32    33    1
    28    33    34    2
    29    33    35    1
    30    35    36   ar
    31    36    37   ar
    32    37    38   ar
    33    38    39   ar
    34    39    40   ar
    35     4     5   ar
    36     5     6   ar
    37    21    16    1
    38     6     1   ar
    39    32    27   ar
    40    40    35   ar
    41     9    11    1
    42    10    12    1
    43    25    26    1
@<TRIPOS>MOLECULE
*****
 40 43 0 0 0
SMALL
GASTEIGER

@<TRIPOS>ATOM
      1 C         139.3295  143.4008  161.5802 C.ar    1  UNL1        0.0516
      2 C         138.6982  144.1671  162.7045 C.ar    1  UNL1        0.0161
      3 C         138.8026  143.6572  164.1113 C.ar    1  UNL1        0.0215
      4 C         139.5382  142.3808  164.3937 C.ar    1  UNL1        0.1253
      5 C         140.1695  141.6144  163.2693 C.ar    1  UNL1        0.0215
      6 C         140.0651  142.1244  161.8626 C.ar    1  UNL1        0.0161
      7 O         141.6370  144.8625  160.3395 O.2     1  UNL1       -0.2525
      8 C         140.3789  144.6416  159.5531 C.2     1  UNL1        0.3045
      9 N         140.2745  145.1516  158.1463 N.am    1  UNL1       -0.2887
     10 N         139.2252  143.9108  160.1734 N.am    1  UNL1       -0.2683
     11 H         139.4488  145.0067  157.6301 H       1  UNL1        0.1510
     12 H         138.3994  143.7658  159.6573 H       1  UNL1        0.1564
     13 C         141.4282  145.8825  157.5260 C.3     1  UNL1        0.0924
     14 C         142.2933  145.1951  156.5115 C.3     1  UNL1        0.0386
     15 C         142.2709  143.6997  156.3966 C.3     1  UNL1        0.0738
     16 N         142.6512  142.8512  157.5737 N.3     1  UNL1       -0.2726
     17 C         141.7923  141.6861  157.9670 C.3     1  UNL1        0.0721
     18 C         142.1726  140.8376  159.1441 C.3     1  UNL1        0.0174
     19 C         143.4118  141.1544  159.9278 C.3     1  UNL1        0.0029
     20 C         144.2706  142.3195  159.5344 C.3     1  UNL1        0.0174
     21 C         143.8903  143.1679  158.3574 C.3     1  UNL1        0.0721
     22 S         139.6426  141.8708  165.8005 S.O2    1  UNL1        0.0736
     23 O         139.3609  140.4792  165.3168 O.2     1  UNL1       -0.1499
     24 O         139.9242  143.2625  166.2841 O.2     1  UNL1       -0.1499
     25 N         139.7469  141.3607  167.2073 N.pl3   1  UNL1       -0.2149
     26 H         139.1031  140.6934  167.5380 H       1  UNL1        0.1737
     27 C         140.8322  141.8675  168.1102 C.ar    1  UNL1        0.0678
     28 C         140.4859  142.7250  169.2912 C.ar    1  UNL1        0.0160
     29 C         141.5712  143.2318  170.1941 C.ar    1  UNL1        0.0013
     30 C         143.0029  142.8810  169.9160 C.ar    1  UNL1        0.0002
     31 C         143.3492  142.0235  168.7350 C.ar    1  UNL1        0.0045
     32 C         142.2639  141.5168  167.8321 C.ar    1  UNL1        0.0535
     33 C         142.6102  140.6593  166.6512 C.2     1  UNL1        0.1968
     34 O         142.1601  139.2292  166.6049 O.2     1  UNL1       -0.2865
     35 C         143.4066  141.2319  165.5163 C.ar    1  UNL1        0.0390
     36 C         143.2831  142.6867  165.1723 C.ar    1  UNL1        0.0032
     37 C         144.0795  143.2594  164.0375 C.ar    1  UNL1        0.0001
     38 C         144.9994  142.3772  163.2467 C.ar    1  UNL1        0.0000
     39 C         145.1230  140.9224  163.5907 C.ar    1  UNL1        0.0001
     40 C         144.3266  140.3498  164.7255 C.ar    1  UNL1        0.0032
@<TRIPOS>BOND
     1     7     8    2
     2     8     9   am
     3     9    13    1
     4    13    14    1
     5    14    15    1
     6    15    16    1
     7    16    17    1
     8    17    18    1
     9    18    19    1
    10    19    20    1
    11    20    21    1
    12     8    10   am
    13    10     1    1
    14     1     2   ar
    15     2     3   ar
    16     3     4   ar
    17     4    22    1
    18    22    23    2
    19    22    24    2
    20    22    25    1
    21    25    27    1
    22    27    28   ar
    23    28    29   ar
    24    29    30   ar
    25    30    31   ar
    26    31    32   ar
    27    32    33    1
    28    33    34    2
    29    33    35    1
    30    35    36   ar
    31    36    37   ar
    32    37    38   ar
    33    38    39   ar
    34    39    40   ar
    35     4     5   ar
    36     5     6   ar
    37    21    16    1
    38     6     1   ar
    39    32    27   ar
    40    40    35   ar
    41     9    11    1
    42    10    12    1
    43    25    26    1
@<TRIPOS>MOLECULE
*****
 40 43 0 0 0
SMALL
GASTEIGER

@<TRIPOS>ATOM
      1 C         138.5617  139.0081  165.7282 C.ar    1  UNL1        0.0516
      2 C         138.9222  137.8357  164.8649 C.ar    1  UNL1        0.0161
      3 C         138.8008  137.9372  163.3732 C.ar    1  UNL1        0.0215
      4 C         138.3189  139.2112  162.7450 C.ar    1  UNL1        0.1253
      5 C         137.9583  140.3837  163.6084 C.ar    1  UNL1        0.0215
      6 C         138.0798  140.2821  165.1000 C.ar    1  UNL1        0.0161
      7 O         139.7739  141.2635  167.2915 O.2     1  UNL1       -0.2525
      8 C         139.2893  140.0343  168.0015 C.2     1  UNL1        0.3045
      9 N         139.4107  139.9328  169.4931 N.am    1  UNL1       -0.2887
     10 N         138.6831  138.9066  167.2198 N.am    1  UNL1       -0.2683
     11 H         139.0926  139.1260  169.9591 H       1  UNL1        0.1510
     12 H         138.3650  138.0998  167.6858 H       1  UNL1        0.1564
     13 C         140.0168  141.0604  170.2747 C.3     1  UNL1        0.0924
     14 C         141.2783  140.8389  171.0555 C.3     1  UNL1        0.0386
     15 C         142.4953  140.2877  170.3736 C.3     1  UNL1        0.0738
     16 N         142.7127  140.5367  168.9104 N.3     1  UNL1       -0.2726
     17 C         142.6979  139.3895  167.9441 C.3     1  UNL1        0.0721
     18 C         142.9153  139.6386  166.4810 C.3     1  UNL1        0.0174
     19 C         143.1475  141.0348  165.9842 C.3     1  UNL1        0.0029
     20 C         143.1624  142.1819  166.9505 C.3     1  UNL1        0.0174
     21 C         142.9450  141.9328  168.4136 C.3     1  UNL1        0.0721
     22 S         138.1974  139.3127  161.2534 S.O2    1  UNL1        0.0736
     23 O         139.2433  138.2491  161.0958 O.2     1  UNL1       -0.1499
     24 O         137.1516  140.3763  161.4109 O.2     1  UNL1       -0.1499
     25 N         138.0760  139.4143  159.7617 N.pl3   1  UNL1       -0.2149
     26 H         137.1924  139.3415  159.3336 H       1  UNL1        0.1737
     27 C         139.3009  139.6266  158.9223 C.ar    1  UNL1        0.0678
     28 C         139.8859  138.4837  158.1466 C.ar    1  UNL1        0.0160
     29 C         141.1108  138.6960  157.3072 C.ar    1  UNL1        0.0013
     30 C         141.7506  140.0512  157.2434 C.ar    1  UNL1        0.0002
     31 C         141.1656  141.1940  158.0191 C.ar    1  UNL1        0.0045
     32 C         139.9407  140.9817  158.8585 C.ar    1  UNL1        0.0535
     33 C         139.3557  142.1246  159.6341 C.2     1  UNL1        0.1968
     34 O         138.2763  142.9697  159.0252 O.2     1  UNL1       -0.2865
     35 C         139.8501  142.4223  161.0187 C.ar    1  UNL1        0.0390
     36 C         139.1976  143.5004  161.8323 C.ar    1  UNL1        0.0032
     37 C         139.6919  143.7982  163.2169 C.ar    1  UNL1        0.0001
     38 C         140.8387  143.0179  163.7878 C.ar    1  UNL1        0.0000
     39 C         141.4912  141.9398  162.9741 C.ar    1  UNL1        0.0001
     40 C         140.9969  141.6420  161.5896 C.ar    1  UNL1        0.0032
@<TRIPOS>BOND
     1     7     8    2
     2     8     9   am
     3     9    13    1
     4    13    14    1
     5    14    15    1
     6    15    16    1
     7    16    17    1
     8    17    18    1
     9    18    19    1
    10    19    20    1
    11    20    21    1
    12     8    10   am
    13    10     1    1
    14     1     2   ar
    15     2     3   ar
    16     3     4   ar
    17     4    22    1
    18    22    23    2
    19    22    24    2
    20    22    25    1
    21    25    27    1
    22    27    28   ar
    23    28    29   ar
    24    29    30   ar
    25    30    31   ar
    26    31    32   ar
    27    32    33    1
    28    33    34    2
    29    33    35    1
    30    35    36   ar
    31    36    37   ar
    32    37    38   ar
    33    38    39   ar
    34    39    40   ar
    35     4     5   ar
    36     5     6   ar
    37    21    16    1
    38     6     1   ar
    39    32    27   ar
    40    40    35   ar
    41     9    11    1
    42    10    12    1
    43    25    26    1
@<TRIPOS>MOLECULE
*****
 40 43 0 0 0
SMALL
GASTEIGER

@<TRIPOS>ATOM
      1 C         144.2451  142.6813  161.4954 C.ar    1  UNL1        0.0516
      2 C         143.0329  143.2048  162.2070 C.ar    1  UNL1        0.0161
      3 C         142.7003  142.7118  163.5841 C.ar    1  UNL1        0.0215
      4 C         143.5800  141.6953  164.2496 C.ar    1  UNL1        0.1253
      5 C         144.7923  141.1718  163.5379 C.ar    1  UNL1        0.0215
      6 C         145.1248  141.6648  162.1608 C.ar    1  UNL1        0.0161
      7 O         142.5668  141.8405  159.1552 O.2     1  UNL1       -0.2525
      8 C         143.7384  142.7539  158.9482 C.2     1  UNL1        0.3045
      9 N         144.0709  143.2469  157.5711 N.am    1  UNL1       -0.2887
     10 N         144.5776  143.1744  160.1183 N.am    1  UNL1       -0.2683
     11 H         144.8399  143.8465  157.4353 H       1  UNL1        0.1510
     12 H         145.3466  143.7739  159.9825 H       1  UNL1        0.1564
     13 C         143.2318  142.8265  156.4011 C.3     1  UNL1        0.0924
     14 C         142.5730  143.8628  155.5397 C.3     1  UNL1        0.0386
     15 C         141.2711  144.4745  155.9651 C.3     1  UNL1        0.0738
     16 N         140.8488  144.4146  157.4033 N.3     1  UNL1       -0.2726
     17 C         141.4148  145.3900  158.3923 C.3     1  UNL1        0.0721
     18 C         140.9925  145.3301  159.8304 C.3     1  UNL1        0.0174
     19 C         140.0042  144.2948  160.2794 C.3     1  UNL1        0.0029
     20 C         139.4383  143.3194  159.2903 C.3     1  UNL1        0.0174
     21 C         139.8606  143.3793  157.8523 C.3     1  UNL1        0.0721
     22 S         143.2475  141.2023  165.6266 S.O2    1  UNL1        0.0736
     23 O         143.7026  142.5095  166.2045 O.2     1  UNL1       -0.1499
     24 O         142.7924  139.8951  165.0487 O.2     1  UNL1       -0.1499
     25 N         142.9150  140.7093  167.0038 N.pl3   1  UNL1       -0.2149
     26 H         143.1147  139.7786  167.2550 H       1  UNL1        0.1737
     27 C         142.2781  141.6344  167.9981 C.ar    1  UNL1        0.0678
     28 C         143.0867  142.1846  169.1354 C.ar    1  UNL1        0.0160
     29 C         142.4499  143.1097  170.1298 C.ar    1  UNL1        0.0013
     30 C         141.0045  143.4845  169.9867 C.ar    1  UNL1        0.0002
     31 C         140.1960  142.9343  168.8494 C.ar    1  UNL1        0.0045
     32 C         140.8328  142.0092  167.8551 C.ar    1  UNL1        0.0535
     33 C         140.0243  141.4589  166.7178 C.2     1  UNL1        0.1968
     34 O         139.7868  139.9816  166.6122 O.2     1  UNL1       -0.2865
     35 C         139.4534  142.3860  165.6859 C.ar    1  UNL1        0.0390
     36 C         138.3554  141.9142  164.7794 C.ar    1  UNL1        0.0032
     37 C         137.7844  142.8412  163.7476 C.ar    1  UNL1        0.0001
     38 C         138.3114  144.2399  163.6223 C.ar    1  UNL1        0.0000
     39 C         139.4094  144.7117  164.5289 C.ar    1  UNL1        0.0001
     40 C         139.9804  143.7847  165.5607 C.ar    1  UNL1        0.0032
@<TRIPOS>BOND
     1     7     8    2
     2     8     9   am
     3     9    13    1
     4    13    14    1
     5    14    15    1
     6    15    16    1
     7    16    17    1
     8    17    18    1
     9    18    19    1
    10    19    20    1
    11    20    21    1
    12     8    10   am
    13    10     1    1
    14     1     2   ar
    15     2     3   ar
    16     3     4   ar
    17     4    22    1
    18    22    23    2
    19    22    24    2
    20    22    25    1
    21    25    27    1
    22    27    28   ar
    23    28    29   ar
    24    29    30   ar
    25    30    31   ar
    26    31    32   ar
    27    32    33    1
    28    33    34    2
    29    33    35    1
    30    35    36   ar
    31    36    37   ar
    32    37    38   ar
    33    38    39   ar
    34    39    40   ar
    35     4     5   ar
    36     5     6   ar
    37    21    16    1
    38     6     1   ar
    39    32    27   ar
    40    40    35   ar
    41     9    11    1
    42    10    12    1
    43    25    26    1
@<TRIPOS>MOLECULE
*****
 40 43 0 0 0
SMALL
GASTEIGER

@<TRIPOS>ATOM
      1 C         139.2401  139.4695  161.2115 C.ar    1  UNL1        0.0516
      2 C         139.1509  138.2402  162.0663 C.ar    1  UNL1        0.0161
      3 C         139.7094  138.2524  163.4584 C.ar    1  UNL1        0.0215
      4 C         140.3570  139.4941  163.9957 C.ar    1  UNL1        0.1253
      5 C         140.4462  140.7236  163.1409 C.ar    1  UNL1        0.0215
      6 C         139.8877  140.7112  161.7488 C.ar    1  UNL1        0.0161
      7 O         140.9072  138.4496  158.9355 O.2     1  UNL1       -0.2525
      8 C         139.5152  138.9472  158.6814 C.2     1  UNL1        0.3045
      9 N         138.9567  138.9349  157.2893 N.am    1  UNL1       -0.2887
     10 N         138.6816  139.4572  159.8195 N.am    1  UNL1       -0.2683
     11 H         138.0430  139.2615  157.1225 H       1  UNL1        0.1510
     12 H         137.7679  139.7838  159.6527 H       1  UNL1        0.1564
     13 C         139.7903  138.4250  156.1513 C.3     1  UNL1        0.0924
     14 C         139.8564  136.9529  155.8709 C.3     1  UNL1        0.0386
     15 C         141.0565  136.3738  155.1821 C.3     1  UNL1        0.0738
     16 N         141.7514  135.1787  155.7643 N.3     1  UNL1       -0.2726
     17 C         141.3994  133.8006  155.2879 C.3     1  UNL1        0.0721
     18 C         142.0943  132.6056  155.8701 C.3     1  UNL1        0.0174
     19 C         143.1412  132.7886  156.9286 C.3     1  UNL1        0.0029
     20 C         143.4932  134.1667  157.4050 C.3     1  UNL1        0.0174
     21 C         142.7983  135.3617  156.8228 C.3     1  UNL1        0.0721
     22 S         140.9155  139.5064  165.3878 S.O2    1  UNL1        0.0736
     23 O         139.5273  139.6233  165.9437 O.2     1  UNL1       -0.1499
     24 O         142.3037  139.3896  164.8319 O.2     1  UNL1       -0.1499
     25 N         141.4740  139.5188  166.7800 N.pl3   1  UNL1       -0.2149
     26 H         142.2005  138.9010  167.0244 H       1  UNL1        0.1737
     27 C         140.9255  140.4724  167.7996 C.ar    1  UNL1        0.0678
     28 C         140.1868  139.9486  168.9955 C.ar    1  UNL1        0.0160
     29 C         139.6383  140.9022  170.0152 C.ar    1  UNL1        0.0013
     30 C         139.8285  142.3797  169.8390 C.ar    1  UNL1        0.0002
     31 C         140.5672  142.9035  168.6432 C.ar    1  UNL1        0.0045
     32 C         141.1157  141.9498  167.6235 C.ar    1  UNL1        0.0535
     33 C         141.8544  142.4736  166.4277 C.2     1  UNL1        0.1968
     34 O         143.3138  142.1724  166.2566 O.2     1  UNL1       -0.2865
     35 C         141.1336  143.2985  165.4030 C.ar    1  UNL1        0.0390
     36 C         141.9076  144.0066  164.3308 C.ar    1  UNL1        0.0032
     37 C         141.1869  144.8315  163.3061 C.ar    1  UNL1        0.0001
     38 C         139.6923  144.9484  163.3536 C.ar    1  UNL1        0.0000
     39 C         138.9183  144.2404  164.4258 C.ar    1  UNL1        0.0001
     40 C         139.6390  143.4155  165.4505 C.ar    1  UNL1        0.0032
@<TRIPOS>BOND
     1     7     8    2
     2     8     9   am
     3     9    13    1
     4    13    14    1
     5    14    15    1
     6    15    16    1
     7    16    17    1
     8    17    18    1
     9    18    19    1
    10    19    20    1
    11    20    21    1
    12     8    10   am
    13    10     1    1
    14     1     2   ar
    15     2     3   ar
    16     3     4   ar
    17     4    22    1
    18    22    23    2
    19    22    24    2
    20    22    25    1
    21    25    27    1
    22    27    28   ar
    23    28    29   ar
    24    29    30   ar
    25    30    31   ar
    26    31    32   ar
    27    32    33    1
    28    33    34    2
    29    33    35    1
    30    35    36   ar
    31    36    37   ar
    32    37    38   ar
    33    38    39   ar
    34    39    40   ar
    35     4     5   ar
    36     5     6   ar
    37    21    16    1
    38     6     1   ar
    39    32    27   ar
    40    40    35   ar
    41     9    11    1
    42    10    12    1
    43    25    26    1
@<TRIPOS>MOLECULE
*****
 40 43 0 0 0
SMALL
GASTEIGER

@<TRIPOS>ATOM
      1 C         142.9636  138.7416  159.0841 C.ar    1  UNL1        0.0516
      2 C         142.2655  140.0207  159.4400 C.ar    1  UNL1        0.0161
      3 C         141.8841  140.2957  160.8644 C.ar    1  UNL1        0.0215
      4 C         142.2007  139.2917  161.9329 C.ar    1  UNL1        0.1253
      5 C         142.8988  138.0126  161.5770 C.ar    1  UNL1        0.0215
      6 C         143.2802  137.7376  160.1526 C.ar    1  UNL1        0.0161
      7 O         141.1651  137.0892  157.3420 O.2     1  UNL1       -0.2525
      8 C         142.4457  137.6404  156.7886 C.2     1  UNL1        0.3045
      9 N         142.8271  137.3654  155.3643 N.am    1  UNL1       -0.2887
     10 N         143.3450  138.4666  157.6598 N.am    1  UNL1       -0.2683
     11 H         143.6677  137.7271  155.0011 H       1  UNL1        0.1510
     12 H         144.1855  138.8284  157.2966 H       1  UNL1        0.1564
     13 C         141.9279  136.5392  154.4932 C.3     1  UNL1        0.0924
     14 C         142.4338  135.2619  153.8909 C.3     1  UNL1        0.0386
     15 C         142.1277  133.9494  154.5493 C.3     1  UNL1        0.0738
     16 N         143.0972  133.3578  155.5293 N.3     1  UNL1       -0.2726
     17 C         143.3256  134.0240  156.8536 C.3     1  UNL1        0.0721
     18 C         144.2950  133.4324  157.8335 C.3     1  UNL1        0.0174
     19 C         145.0360  132.1745  157.4890 C.3     1  UNL1        0.0029
     20 C         144.8076  131.5083  156.1647 C.3     1  UNL1        0.0174
     21 C         143.8382  132.0999  155.1848 C.3     1  UNL1        0.0721
     22 S         141.8193  139.5667  163.3573 S.O2    1  UNL1        0.0736
     23 O         142.9075  138.6470  163.8262 O.2     1  UNL1       -0.1499
     24 O         140.7311  140.4864  162.8883 O.2     1  UNL1       -0.1499
     25 N         141.4379  139.8417  164.7817 N.pl3   1  UNL1       -0.2149
     26 H         141.9864  140.4483  165.3299 H       1  UNL1        0.1737
     27 C         140.2209  139.1924  165.3710 C.ar    1  UNL1        0.0678
     28 C         139.8109  137.8210  164.9224 C.ar    1  UNL1        0.0160
     29 C         138.5939  137.1717  165.5116 C.ar    1  UNL1        0.0013
     30 C         137.7867  137.8939  166.5495 C.ar    1  UNL1        0.0002
     31 C         138.1967  139.2653  166.9980 C.ar    1  UNL1        0.0045
     32 C         139.4137  139.9145  166.4088 C.ar    1  UNL1        0.0535
     33 C         139.8237  141.2859  166.8573 C.2     1  UNL1        0.1968
     34 O         139.7386  142.4427  165.9063 O.2     1  UNL1       -0.2865
     35 C         140.3187  141.5005  168.2570 C.ar    1  UNL1        0.0390
     36 C         140.5521  140.3246  169.1585 C.ar    1  UNL1        0.0032
     37 C         141.0471  140.5391  170.5581 C.ar    1  UNL1        0.0001
     38 C         141.3087  141.9295  171.0562 C.ar    1  UNL1        0.0000
     39 C         141.0753  143.1055  170.1547 C.ar    1  UNL1        0.0001
     40 C         140.5803  142.8910  168.7551 C.ar    1  UNL1        0.0032
@<TRIPOS>BOND
     1     7     8    2
     2     8     9   am
     3     9    13    1
     4    13    14    1
     5    14    15    1
     6    15    16    1
     7    16    17    1
     8    17    18    1
     9    18    19    1
    10    19    20    1
    11    20    21    1
    12     8    10   am
    13    10     1    1
    14     1     2   ar
    15     2     3   ar
    16     3     4   ar
    17     4    22    1
    18    22    23    2
    19    22    24    2
    20    22    25    1
    21    25    27    1
    22    27    28   ar
    23    28    29   ar
    24    29    30   ar
    25    30    31   ar
    26    31    32   ar
    27    32    33    1
    28    33    34    2
    29    33    35    1
    30    35    36   ar
    31    36    37   ar
    32    37    38   ar
    33    38    39   ar
    34    39    40   ar
    35     4     5   ar
    36     5     6   ar
    37    21    16    1
    38     6     1   ar
    39    32    27   ar
    40    40    35   ar
    41     9    11    1
    42    10    12    1
    43    25    26    1
