@<TRIPOS>MOLECULE
*****
 37 41 0 0 0
SMALL
GASTEIGER

@<TRIPOS>ATOM
      1 C         139.2347  138.2804  165.1635 C.3     1  UNL1        0.0546
      2 C         138.3060  138.6830  166.2705 C.3     1  UNL1        0.0176
      3 C         139.1022  139.4416  167.2906 C.3     1  UNL1        0.0268
      4 C         139.0203  140.1593  168.6052 C.3     1  UNL1        0.0726
      5 N         140.3905  140.6691  168.9412 N.3     1  UNL1       -0.2735
      6 C         141.3191  140.2665  167.8342 C.3     1  UNL1        0.0807
      7 C         140.5230  139.5078  166.8141 C.3     1  UNL1        0.0863
      8 C         140.6048  138.7902  165.4995 C.3     1  UNL1        0.0257
      9 C         141.9437  139.5741  166.3375 C.2     1  UNL1        0.2264
     10 O         142.9504  138.5822  166.8402 O.2     1  UNL1       -0.2748
     11 N         142.3578  140.6322  165.3582 N.am    1  UNL1       -0.2750
     12 C         143.7785  140.6985  164.8817 C.3     1  UNL1        0.1000
     13 C         144.1924  141.7566  163.9024 C.3     1  UNL1        0.0670
     14 C         143.1857  142.7485  163.3998 C.ar    1  UNL1        0.0583
     15 N         143.5998  143.8066  162.4205 N.ar    1  UNL1       -0.2484
     16 C         142.5931  144.7985  161.9178 C.ar    1  UNL1        0.1023
     17 C         141.1723  144.7322  162.3944 C.ar    1  UNL1        0.0902
     18 C         140.7583  143.6741  163.3736 C.ar    1  UNL1        0.0040
     19 C         141.7650  142.6822  163.8763 C.ar    1  UNL1        0.0113
     20 C         141.3510  141.6241  164.8556 C.3     1  UNL1        0.1213
     21 C         140.1656  145.7241  161.8917 C.3     1  UNL1        0.4200
     22 F         139.1588  146.7160  161.3890 F       1  UNL1       -0.1658
     23 F         140.8992  145.8070  160.5860 F       1  UNL1       -0.1658
     24 F         139.4319  145.6412  163.1974 F       1  UNL1       -0.1658
     25 C         140.7660  141.4452  170.1687 C.3     1  UNL1        0.0576
     26 C         140.1255  142.7740  170.4409 C.3     1  UNL1        0.0173
     27 C         141.7820  140.8926  171.1238 C.3     1  UNL1        0.0173
     28 N         138.8592  137.5042  163.9361 N.3     1  UNL1       -0.2975
     29 H         139.4801  136.6959  163.8974 H       1  UNL1        0.1232
     30 C         140.1588  138.0514  161.7540 C.3     1  UNL1        0.1591
     31 C         140.2162  138.7064  160.4057 C.3     1  UNL1        0.1729
     32 O         139.0315  139.4691  159.8914 O.3     1  UNL1       -0.3511
     33 C         137.7893  139.5769  160.7253 C.3     1  UNL1        0.1437
     34 C         137.7318  138.9219  162.0735 C.3     1  UNL1        0.0503
     35 C         138.9166  138.1592  162.5878 C.3     1  UNL1        0.0865
     36 C         142.6463  137.9946  162.5016 C.3     1  UNL1        0.1742
     37 O         141.3435  137.2887  162.2683 O.3     1  UNL1       -0.3496
@<TRIPOS>BOND
     1    36    37    1
     2    37    30    1
     3    30    31    1
     4    31    32    1
     5    32    33    1
     6    33    34    1
     7    34    35    1
     8    35    28    1
     9     1    28    1
    10     1     2    1
    11     3     2    1
    12     3     4    1
    13     4     5    1
    14     5    25    1
    15    25    26    1
    16    25    27    1
    17     5     6    1
    18     6     7    1
    19     7     9    1
    20     9    10    2
    21     9    11   am
    22    11    12    1
    23    12    13    1
    24    13    14    1
    25    14    15   ar
    26    15    16   ar
    27    16    17   ar
    28    17    21    1
    29    21    22    1
    30    21    23    1
    31    21    24    1
    32    17    18   ar
    33    18    19   ar
    34    19    20    1
    35     7     8    1
    36    35    30    1
    37     8     1    1
    38     7     3    1
    39    20    11    1
    40    19    14   ar
    41    28    29    1
@<TRIPOS>MOLECULE
*****
 37 41 0 0 0
SMALL
GASTEIGER

@<TRIPOS>ATOM
      1 C         143.8253  139.5894  164.6825 C.3     1  UNL1        0.0546
      2 C         142.9554  138.8073  165.6214 C.3     1  UNL1        0.0176
      3 C         142.2891  139.7768  166.5521 C.3     1  UNL1        0.0268
      4 C         141.3397  139.8927  167.7076 C.3     1  UNL1        0.0726
      5 N         141.2110  141.3456  168.0579 N.3     1  UNL1       -0.2735
      6 C         142.0809  142.1276  167.1189 C.3     1  UNL1        0.0807
      7 C         142.7472  141.1581  166.1883 C.3     1  UNL1        0.0863
      8 C         143.6966  141.0422  165.0328 C.3     1  UNL1        0.0257
      9 C         143.2053  142.5393  165.8245 C.2     1  UNL1        0.2264
     10 O         144.1897  143.2577  166.6991 O.2     1  UNL1       -0.2748
     11 N         142.6791  143.2021  164.5860 N.am    1  UNL1       -0.2750
     12 C         143.1372  144.5833  164.2221 C.3     1  UNL1        0.1000
     13 C         142.6110  145.2461  162.9837 C.3     1  UNL1        0.0670
     14 C         141.6267  144.5277  162.1091 C.ar    1  UNL1        0.0583
     15 N         141.1004  145.1905  160.8706 N.ar    1  UNL1       -0.2484
     16 C         140.1161  144.4721  159.9960 C.ar    1  UNL1        0.1023
     17 C         139.6580  143.0908  160.3598 C.ar    1  UNL1        0.0902
     18 C         140.1842  142.4281  161.5983 C.ar    1  UNL1        0.0040
     19 C         141.1685  143.1465  162.4729 C.ar    1  UNL1        0.0113
     20 C         141.6948  142.4837  163.7113 C.3     1  UNL1        0.1213
     21 C         138.6737  142.3724  159.4852 C.3     1  UNL1        0.4200
     22 F         137.6893  141.6540  158.6106 F       1  UNL1       -0.1658
     23 F         138.9310  143.3591  158.3851 F       1  UNL1       -0.1658
     24 F         138.4163  141.3858  160.5853 F       1  UNL1       -0.1658
     25 C         140.3616  141.9162  169.1547 C.3     1  UNL1        0.0576
     26 C         139.4204  141.0283  169.9134 C.3     1  UNL1        0.0173
     27 C         140.4533  143.3747  169.4927 C.3     1  UNL1        0.0173
     28 N         144.6748  139.0188  163.5857 N.3     1  UNL1       -0.2975
     29 H         145.5382  139.5616  163.5693 H       1  UNL1        0.1232
     30 C         144.3411  140.1737  161.2824 C.3     1  UNL1        0.1591
     31 C         143.8246  140.1391  159.8746 C.3     1  UNL1        0.1729
     32 O         143.1251  138.9152  159.3622 O.3     1  UNL1       -0.3511
     33 C         142.9421  137.7257  160.2576 C.3     1  UNL1        0.1437
     34 C         143.4587  137.7602  161.6654 C.3     1  UNL1        0.0503
     35 C         144.1582  138.9842  162.1778 C.3     1  UNL1        0.0865
     36 C         144.7226  142.7426  161.2118 C.3     1  UNL1        0.1742
     37 O         145.0406  141.3976  161.7949 O.3     1  UNL1       -0.3496
@<TRIPOS>BOND
     1    36    37    1
     2    37    30    1
     3    30    31    1
     4    31    32    1
     5    32    33    1
     6    33    34    1
     7    34    35    1
     8    35    28    1
     9     1    28    1
    10     1     2    1
    11     3     2    1
    12     3     4    1
    13     4     5    1
    14     5    25    1
    15    25    26    1
    16    25    27    1
    17     5     6    1
    18     6     7    1
    19     7     9    1
    20     9    10    2
    21     9    11   am
    22    11    12    1
    23    12    13    1
    24    13    14    1
    25    14    15   ar
    26    15    16   ar
    27    16    17   ar
    28    17    21    1
    29    21    22    1
    30    21    23    1
    31    21    24    1
    32    17    18   ar
    33    18    19   ar
    34    19    20    1
    35     7     8    1
    36    35    30    1
    37     8     1    1
    38     7     3    1
    39    20    11    1
    40    19    14   ar
    41    28    29    1
@<TRIPOS>MOLECULE
*****
 37 41 0 0 0
SMALL
GASTEIGER

@<TRIPOS>ATOM
      1 C         140.2205  137.8648  164.0312 C.3     1  UNL1        0.0546
      2 C         138.8887  137.8332  164.7206 C.3     1  UNL1        0.0176
      3 C         139.0254  138.5586  166.0264 C.3     1  UNL1        0.0268
      4 C         138.2868  138.9873  167.2595 C.3     1  UNL1        0.0726
      5 N         139.2466  139.7322  168.1393 N.3     1  UNL1       -0.2735
      6 C         140.5784  139.7638  167.4499 C.3     1  UNL1        0.0807
      7 C         140.4417  139.0385  166.1441 C.3     1  UNL1        0.0863
      8 C         141.1803  138.6097  164.9109 C.3     1  UNL1        0.0257
      9 C         141.8580  139.5184  166.2617 C.2     1  UNL1        0.2264
     10 O         142.8635  138.7082  167.0250 O.2     1  UNL1       -0.2748
     11 N         142.2688  140.8085  165.6160 N.am    1  UNL1       -0.2750
     12 C         143.6851  141.2884  165.7336 C.3     1  UNL1        0.1000
     13 C         144.0959  142.5784  165.0879 C.3     1  UNL1        0.0670
     14 C         143.0904  143.3886  164.3246 C.ar    1  UNL1        0.0583
     15 N         143.5013  144.6787  163.6789 N.ar    1  UNL1       -0.2484
     16 C         142.4958  145.4889  162.9156 C.ar    1  UNL1        0.1023
     17 C         141.0795  145.0089  162.7980 C.ar    1  UNL1        0.0902
     18 C         140.6687  143.7189  163.4436 C.ar    1  UNL1        0.0040
     19 C         141.6742  142.9087  164.2070 C.ar    1  UNL1        0.0113
     20 C         141.2634  141.6187  164.8526 C.3     1  UNL1        0.1213
     21 C         140.0740  145.8191  162.0347 C.3     1  UNL1        0.4200
     22 F         139.0685  146.6293  161.2713 F       1  UNL1       -0.1658
     23 F         139.1375  145.7593  163.2048 F       1  UNL1       -0.1658
     24 F         141.0105  145.8789  160.8645 F       1  UNL1       -0.1658
     25 C         138.9301  140.3389  169.4741 C.3     1  UNL1        0.0576
     26 C         137.8413  139.7546  170.3244 C.3     1  UNL1        0.0173
     27 C         139.7025  141.5301  169.9586 C.3     1  UNL1        0.0173
     28 N         140.5370  137.2581  162.6963 N.3     1  UNL1       -0.2975
     29 H         141.0261  136.3819  162.8796 H       1  UNL1        0.1232
     30 C         140.7121  138.9815  160.7600 C.3     1  UNL1        0.1591
     31 C         141.5423  139.7416  159.7686 C.3     1  UNL1        0.1729
     32 O         143.0277  139.5384  159.7220 O.3     1  UNL1       -0.3511
     33 C         143.6830  138.5751  160.6668 C.3     1  UNL1        0.1437
     34 C         142.8527  137.8150  161.6583 C.3     1  UNL1        0.0503
     35 C         141.3673  138.0182  161.7049 C.3     1  UNL1        0.0865
     36 C         138.5054  139.7239  159.6070 C.3     1  UNL1        0.1742
     37 O         139.2267  139.1847  160.8066 O.3     1  UNL1       -0.3496
@<TRIPOS>BOND
     1    36    37    1
     2    37    30    1
     3    30    31    1
     4    31    32    1
     5    32    33    1
     6    33    34    1
     7    34    35    1
     8    35    28    1
     9     1    28    1
    10     1     2    1
    11     3     2    1
    12     3     4    1
    13     4     5    1
    14     5    25    1
    15    25    26    1
    16    25    27    1
    17     5     6    1
    18     6     7    1
    19     7     9    1
    20     9    10    2
    21     9    11   am
    22    11    12    1
    23    12    13    1
    24    13    14    1
    25    14    15   ar
    26    15    16   ar
    27    16    17   ar
    28    17    21    1
    29    21    22    1
    30    21    23    1
    31    21    24    1
    32    17    18   ar
    33    18    19   ar
    34    19    20    1
    35     7     8    1
    36    35    30    1
    37     8     1    1
    38     7     3    1
    39    20    11    1
    40    19    14   ar
    41    28    29    1
@<TRIPOS>MOLECULE
*****
 37 41 0 0 0
SMALL
GASTEIGER

@<TRIPOS>ATOM
      1 C         138.8240  142.7795  165.0818 C.3     1  UNL1        0.0546
      2 C         139.6487  143.6106  166.0195 C.3     1  UNL1        0.0176
      3 C         140.4040  142.6801  166.9214 C.3     1  UNL1        0.0268
      4 C         141.3805  142.6185  168.0584 C.3     1  UNL1        0.0726
      5 N         141.6262  141.1743  168.3808 N.3     1  UNL1       -0.2735
      6 C         140.8015  140.3433  167.4431 C.3     1  UNL1        0.0807
      7 C         140.0462  141.2738  166.5412 C.3     1  UNL1        0.0863
      8 C         139.0697  141.3353  165.4042 C.3     1  UNL1        0.0257
      9 C         139.6884  139.8677  166.1609 C.2     1  UNL1        0.2264
     10 O         138.8129  139.0470  167.0609 O.2     1  UNL1       -0.2748
     11 N         140.2060  139.2821  164.8805 N.am    1  UNL1       -0.2750
     12 C         139.8482  137.8760  164.5003 C.3     1  UNL1        0.1000
     13 C         140.3658  137.2905  163.2200 C.3     1  UNL1        0.0670
     14 C         141.2413  138.1112  162.3199 C.ar    1  UNL1        0.0583
     15 N         141.7589  137.5256  161.0396 N.ar    1  UNL1       -0.2484
     16 C         142.6344  138.3463  160.1395 C.ar    1  UNL1        0.1023
     17 C         142.9922  139.7525  160.5199 C.ar    1  UNL1        0.0902
     18 C         142.4746  140.3380  161.8002 C.ar    1  UNL1        0.0040
     19 C         141.5991  139.5173  162.7002 C.ar    1  UNL1        0.0113
     20 C         141.0815  140.1028  163.9805 C.3     1  UNL1        0.1213
     21 C         143.8677  140.5732  159.6199 C.3     1  UNL1        0.4200
     22 F         144.7431  141.3939  158.7198 F       1  UNL1       -0.1658
     23 F         144.3978  141.3144  160.8113 F       1  UNL1       -0.1658
     24 F         143.3376  139.8320  158.4284 F       1  UNL1       -0.1658
     25 C         142.5367  140.6528  169.4528 C.3     1  UNL1        0.0576
     26 C         142.3971  139.2386  169.9328 C.3     1  UNL1        0.0173
     27 C         143.5867  141.5455  170.0447 C.3     1  UNL1        0.0173
     28 N         137.9135  143.3011  164.0098 N.3     1  UNL1       -0.2975
     29 H         137.1388  142.6418  163.9351 H       1  UNL1        0.1232
     30 C         138.0992  142.5366  161.5337 C.3     1  UNL1        0.1591
     31 C         138.6220  142.7499  160.1441 C.3     1  UNL1        0.1729
     32 O         139.4817  143.9409  159.8407 O.3     1  UNL1       -0.3511
     33 C         139.8188  144.9188  160.9271 C.3     1  UNL1        0.1437
     34 C         139.2961  144.7056  162.3168 C.3     1  UNL1        0.0503
     35 C         138.4363  143.5144  162.6201 C.3     1  UNL1        0.0865
     36 C         137.8722  140.0109  162.0990 C.3     1  UNL1        0.1742
     37 O         137.2395  141.3455  161.8371 O.3     1  UNL1       -0.3496
@<TRIPOS>BOND
     1    36    37    1
     2    37    30    1
     3    30    31    1
     4    31    32    1
     5    32    33    1
     6    33    34    1
     7    34    35    1
     8    35    28    1
     9     1    28    1
    10     1     2    1
    11     3     2    1
    12     3     4    1
    13     4     5    1
    14     5    25    1
    15    25    26    1
    16    25    27    1
    17     5     6    1
    18     6     7    1
    19     7     9    1
    20     9    10    2
    21     9    11   am
    22    11    12    1
    23    12    13    1
    24    13    14    1
    25    14    15   ar
    26    15    16   ar
    27    16    17   ar
    28    17    21    1
    29    21    22    1
    30    21    23    1
    31    21    24    1
    32    17    18   ar
    33    18    19   ar
    34    19    20    1
    35     7     8    1
    36    35    30    1
    37     8     1    1
    38     7     3    1
    39    20    11    1
    40    19    14   ar
    41    28    29    1
@<TRIPOS>MOLECULE
*****
 37 41 0 0 0
SMALL
GASTEIGER

@<TRIPOS>ATOM
      1 C         141.9441  138.2272  164.9205 C.3     1  UNL1        0.0546
      2 C         142.9769  138.5901  165.9460 C.3     1  UNL1        0.0176
      3 C         142.3435  139.5288  166.9297 C.3     1  UNL1        0.0268
      4 C         142.5903  140.3333  168.1714 C.3     1  UNL1        0.0726
      5 N         141.3186  141.0477  168.5213 N.3     1  UNL1       -0.2735
      6 C         140.2858  140.6848  167.4958 C.3     1  UNL1        0.0807
      7 C         140.9192  139.7461  166.5121 C.3     1  UNL1        0.0863
      8 C         140.6724  138.9416  165.2704 C.3     1  UNL1        0.0257
      9 C         139.4950  139.9633  166.0946 C.2     1  UNL1        0.2264
     10 O         138.3754  139.4662  166.9603 O.2     1  UNL1       -0.2748
     11 N         139.1903  140.6777  164.8112 N.am    1  UNL1       -0.2750
     12 C         137.7661  140.8949  164.3937 C.3     1  UNL1        0.1000
     13 C         137.4614  141.6093  163.1104 C.3     1  UNL1        0.0670
     14 C         138.5810  142.1064  162.2447 C.ar    1  UNL1        0.0583
     15 N         138.2763  142.8208  160.9613 N.ar    1  UNL1       -0.2484
     16 C         139.3958  143.3179  160.0956 C.ar    1  UNL1        0.1023
     17 C         140.8201  143.1007  160.5132 C.ar    1  UNL1        0.0902
     18 C         141.1247  142.3863  161.7965 C.ar    1  UNL1        0.0040
     19 C         140.0052  141.8892  162.6622 C.ar    1  UNL1        0.0113
     20 C         140.3098  141.1748  163.9455 C.3     1  UNL1        0.1213
     21 C         141.9396  143.5978  159.6475 C.3     1  UNL1        0.4200
     22 F         143.0592  144.0949  158.7818 F       1  UNL1       -0.1658
     23 F         141.5895  145.0115  160.0065 F       1  UNL1       -0.1658
     24 F         142.2898  142.1841  159.2885 F       1  UNL1       -0.1658
     25 C         141.1154  141.9642  169.6913 C.3     1  UNL1        0.0576
     26 C         141.5114  141.5213  171.0686 C.3     1  UNL1        0.0173
     27 C         140.5162  143.3236  169.4840 C.3     1  UNL1        0.0173
     28 N         142.1473  137.3107  163.7505 N.3     1  UNL1       -0.2975
     29 H         142.9683  136.7429  163.9603 H       1  UNL1        0.1232
     30 C         141.1937  138.0079  161.4365 C.3     1  UNL1        0.1591
     31 C         141.4005  138.5778  160.0645 C.3     1  UNL1        0.1729
     32 O         142.7676  139.0205  159.6344 O.3     1  UNL1       -0.3511
     33 C         143.9281  138.8932  160.5764 C.3     1  UNL1        0.1437
     34 C         143.7213  138.3233  161.9484 C.3     1  UNL1        0.0503
     35 C         142.3541  137.8806  162.3785 C.3     1  UNL1        0.0865
     36 C         138.6298  138.4122  161.5495 C.3     1  UNL1        0.1742
     37 O         139.8266  137.5653  161.8665 O.3     1  UNL1       -0.3496
@<TRIPOS>BOND
     1    36    37    1
     2    37    30    1
     3    30    31    1
     4    31    32    1
     5    32    33    1
     6    33    34    1
     7    34    35    1
     8    35    28    1
     9     1    28    1
    10     1     2    1
    11     3     2    1
    12     3     4    1
    13     4     5    1
    14     5    25    1
    15    25    26    1
    16    25    27    1
    17     5     6    1
    18     6     7    1
    19     7     9    1
    20     9    10    2
    21     9    11   am
    22    11    12    1
    23    12    13    1
    24    13    14    1
    25    14    15   ar
    26    15    16   ar
    27    16    17   ar
    28    17    21    1
    29    21    22    1
    30    21    23    1
    31    21    24    1
    32    17    18   ar
    33    18    19   ar
    34    19    20    1
    35     7     8    1
    36    35    30    1
    37     8     1    1
    38     7     3    1
    39    20    11    1
    40    19    14   ar
    41    28    29    1
@<TRIPOS>MOLECULE
*****
 37 41 0 0 0
SMALL
GASTEIGER

@<TRIPOS>ATOM
      1 C         144.2243  141.8747  165.1342 C.3     1  UNL1        0.0546
      2 C         143.7867  142.8981  166.1399 C.3     1  UNL1        0.0176
      3 C         142.8968  142.2171  167.1370 C.3     1  UNL1        0.0268
      4 C         142.0763  142.4287  168.3748 C.3     1  UNL1        0.0726
      5 N         141.4568  141.1152  168.7504 N.3     1  UNL1       -0.2735
      6 C         141.8943  140.0919  167.7448 C.3     1  UNL1        0.0807
      7 C         142.7843  140.7728  166.7476 C.3     1  UNL1        0.0863
      8 C         143.6047  140.5613  165.5099 C.3     1  UNL1        0.0257
      9 C         142.6718  139.3287  166.3583 C.2     1  UNL1        0.2264
     10 O         143.3080  138.2705  167.2100 O.2     1  UNL1       -0.2748
     11 N         141.9232  138.9426  165.1170 N.am    1  UNL1       -0.2750
     12 C         141.8108  137.4984  164.7276 C.3     1  UNL1        0.1000
     13 C         141.0622  137.1124  163.4865 C.3     1  UNL1        0.0670
     14 C         140.4260  138.1706  162.6347 C.ar    1  UNL1        0.0583
     15 N         139.6774  137.7846  161.3934 N.ar    1  UNL1       -0.2484
     16 C         139.0412  138.8428  160.5416 C.ar    1  UNL1        0.1023
     17 C         139.1537  140.2870  160.9311 C.ar    1  UNL1        0.0902
     18 C         139.9023  140.6730  162.1723 C.ar    1  UNL1        0.0040
     19 C         140.5385  139.6148  163.0241 C.ar    1  UNL1        0.0113
     20 C         141.2871  140.0008  164.2652 C.3     1  UNL1        0.1213
     21 C         138.5175  141.3452  160.0793 C.3     1  UNL1        0.4200
     22 F         137.8814  142.4034  159.2275 F       1  UNL1       -0.1658
     23 F         139.0539  140.6767  158.8483 F       1  UNL1       -0.1658
     24 F         137.9811  142.0136  161.3103 F       1  UNL1       -0.1658
     25 C         140.5576  140.8685  169.9254 C.3     1  UNL1        0.0576
     26 C         141.0787  141.0511  171.3200 C.3     1  UNL1        0.0173
     27 C         139.1372  140.4391  169.7057 C.3     1  UNL1        0.0173
     28 N         145.1235  142.1215  163.9592 N.3     1  UNL1       -0.2975
     29 H         145.4422  143.0878  164.0301 H       1  UNL1        0.1232
     30 C         144.2604  143.1361  161.7286 C.3     1  UNL1        0.1591
     31 C         143.7393  142.9532  160.3340 C.3     1  UNL1        0.1729
     32 O         143.5603  141.5727  159.7753 O.3     1  UNL1       -0.3511
     33 C         143.9023  140.3750  160.6113 C.3     1  UNL1        0.1437
     34 C         144.4234  140.5580  162.0059 C.3     1  UNL1        0.0503
     35 C         144.6024  141.9385  162.5646 C.3     1  UNL1        0.0865
     36 C         143.4230  145.0794  163.2360 C.3     1  UNL1        0.1742
     37 O         144.4395  144.5166  162.2873 O.3     1  UNL1       -0.3496
@<TRIPOS>BOND
     1    36    37    1
     2    37    30    1
     3    30    31    1
     4    31    32    1
     5    32    33    1
     6    33    34    1
     7    34    35    1
     8    35    28    1
     9     1    28    1
    10     1     2    1
    11     3     2    1
    12     3     4    1
    13     4     5    1
    14     5    25    1
    15    25    26    1
    16    25    27    1
    17     5     6    1
    18     6     7    1
    19     7     9    1
    20     9    10    2
    21     9    11   am
    22    11    12    1
    23    12    13    1
    24    13    14    1
    25    14    15   ar
    26    15    16   ar
    27    16    17   ar
    28    17    21    1
    29    21    22    1
    30    21    23    1
    31    21    24    1
    32    17    18   ar
    33    18    19   ar
    34    19    20    1
    35     7     8    1
    36    35    30    1
    37     8     1    1
    38     7     3    1
    39    20    11    1
    40    19    14   ar
    41    28    29    1
@<TRIPOS>MOLECULE
*****
 37 41 0 0 0
SMALL
GASTEIGER

@<TRIPOS>ATOM
      1 C         138.7055  141.8946  159.7697 C.3     1  UNL1        0.0546
      2 C         138.1810  140.5598  159.3299 C.3     1  UNL1        0.0176
      3 C         139.2641  139.8683  158.5561 C.3     1  UNL1        0.0268
      4 C         139.6093  138.6161  157.8060 C.3     1  UNL1        0.0726
      5 N         141.0165  138.7495  157.3039 N.3     1  UNL1       -0.2735
      6 C         141.5409  140.0842  157.7437 C.3     1  UNL1        0.0807
      7 C         140.4579  140.7757  158.5176 C.3     1  UNL1        0.0863
      8 C         140.1127  142.0280  159.2677 C.3     1  UNL1        0.0257
      9 C         141.6517  141.6831  158.4791 C.2     1  UNL1        0.2264
     10 O         141.8456  142.6188  157.3229 O.2     1  UNL1       -0.2748
     11 N         142.6517  141.6548  159.5969 N.am    1  UNL1       -0.2750
     12 C         143.8454  142.5622  159.5584 C.3     1  UNL1        0.1000
     13 C         144.8453  142.5338  160.6761 C.3     1  UNL1        0.0670
     14 C         144.6514  141.5981  161.8324 C.ar    1  UNL1        0.0583
     15 N         145.6514  141.5698  162.9502 N.ar    1  UNL1       -0.2484
     16 C         145.4575  140.6341  164.1064 C.ar    1  UNL1        0.1023
     17 C         144.2636  139.7267  164.1448 C.ar    1  UNL1        0.0902
     18 C         143.2637  139.7550  163.0271 C.ar    1  UNL1        0.0040
     19 C         143.4576  140.6907  161.8708 C.ar    1  UNL1        0.0113
     20 C         142.4578  140.7191  160.7531 C.3     1  UNL1        0.1213
     21 C         144.0697  138.7910  165.3010 C.3     1  UNL1        0.4200
     22 F         143.8758  137.8553  166.4572 F       1  UNL1       -0.1658
     23 F         145.5554  138.7252  165.4970 F       1  UNL1       -0.1658
     24 F         142.5840  138.8567  165.1051 F       1  UNL1       -0.1658
     25 C         141.7674  137.7276  156.5027 C.3     1  UNL1        0.0576
     26 C         143.2246  137.9277  156.2090 C.3     1  UNL1        0.0173
     27 C         141.0609  136.5055  155.9952 C.3     1  UNL1        0.0173
     28 N         137.9546  142.9165  160.5710 N.3     1  UNL1       -0.2975
     29 H         138.2661  143.8320  160.2465 H       1  UNL1        0.1232
     30 C         138.3279  144.2135  162.7909 C.3     1  UNL1        0.1591
     31 C         138.4392  144.2234  164.2867 C.3     1  UNL1        0.1729
     32 O         138.2885  142.9460  165.0585 O.3     1  UNL1       -0.3511
     33 C         138.0264  141.6587  164.3343 C.3     1  UNL1        0.1437
     34 C         137.9151  141.6489  162.8385 C.3     1  UNL1        0.0503
     35 C         138.0659  142.9263  162.0668 C.3     1  UNL1        0.0865
     36 C         139.8466  146.0170  161.6994 C.3     1  UNL1        0.1742
     37 O         138.4787  145.4909  162.0192 O.3     1  UNL1       -0.3496
@<TRIPOS>BOND
     1    36    37    1
     2    37    30    1
     3    30    31    1
     4    31    32    1
     5    32    33    1
     6    33    34    1
     7    34    35    1
     8    35    28    1
     9     1    28    1
    10     1     2    1
    11     3     2    1
    12     3     4    1
    13     4     5    1
    14     5    25    1
    15    25    26    1
    16    25    27    1
    17     5     6    1
    18     6     7    1
    19     7     9    1
    20     9    10    2
    21     9    11   am
    22    11    12    1
    23    12    13    1
    24    13    14    1
    25    14    15   ar
    26    15    16   ar
    27    16    17   ar
    28    17    21    1
    29    21    22    1
    30    21    23    1
    31    21    24    1
    32    17    18   ar
    33    18    19   ar
    34    19    20    1
    35     7     8    1
    36    35    30    1
    37     8     1    1
    38     7     3    1
    39    20    11    1
    40    19    14   ar
    41    28    29    1
@<TRIPOS>MOLECULE
*****
 37 41 0 0 0
SMALL
GASTEIGER

@<TRIPOS>ATOM
      1 C         138.4958  140.3579  165.1366 C.3     1  UNL1        0.0546
      2 C         138.9842  139.3475  166.1319 C.3     1  UNL1        0.0176
      3 C         139.9589  140.0300  167.0451 C.3     1  UNL1        0.0268
      4 C         140.8631  139.8275  168.2247 C.3     1  UNL1        0.0726
      5 N         141.5359  141.1346  168.5229 N.3     1  UNL1       -0.2735
      6 C         141.0475  142.1450  167.5276 C.3     1  UNL1        0.0807
      7 C         140.0728  141.4624  166.6144 C.3     1  UNL1        0.0863
      8 C         139.1686  141.6650  165.4348 C.3     1  UNL1        0.0257
      9 C         140.1867  142.8946  166.1836 C.2     1  UNL1        0.2264
     10 O         139.6640  143.9877  167.0679 O.2     1  UNL1       -0.2748
     11 N         140.8234  143.2339  164.8684 N.am    1  UNL1       -0.2750
     12 C         140.9374  144.6662  164.4376 C.3     1  UNL1        0.1000
     13 C         141.5740  145.0054  163.1225 C.3     1  UNL1        0.0670
     14 C         142.0968  143.9123  162.2382 C.ar    1  UNL1        0.0583
     15 N         142.7335  144.2516  160.9230 N.ar    1  UNL1       -0.2484
     16 C         143.2562  143.1586  160.0387 C.ar    1  UNL1        0.1023
     17 C         143.1423  141.7262  160.4696 C.ar    1  UNL1        0.0902
     18 C         142.5056  141.3870  161.7847 C.ar    1  UNL1        0.0040
     19 C         141.9829  142.4801  162.6690 C.ar    1  UNL1        0.0113
     20 C         141.3462  142.1409  163.9841 C.3     1  UNL1        0.1213
     21 C         143.6650  140.6332  159.5853 C.3     1  UNL1        0.4200
     22 F         144.1878  139.5402  158.7010 F       1  UNL1       -0.1658
     23 F         142.8206  139.6348  160.3202 F       1  UNL1       -0.1658
     24 F         144.5095  141.6316  158.8504 F       1  UNL1       -0.1658
     25 C         142.5237  141.3869  169.6232 C.3     1  UNL1        0.0576
     26 C         143.0296  140.2447  170.4534 C.3     1  UNL1        0.0173
     27 C         143.0057  142.7815  169.8931 C.3     1  UNL1        0.0173
     28 N         137.5079  140.1055  164.0363 N.3     1  UNL1       -0.2975
     29 H         136.9401  139.3097  164.3272 H       1  UNL1        0.1232
     30 C         137.9120  140.8623  161.5840 C.3     1  UNL1        0.1591
     31 C         138.3956  140.5648  160.1956 C.3     1  UNL1        0.1729
     32 O         138.9587  139.2129  159.8712 O.3     1  UNL1       -0.3511
     33 C         139.0383  138.1585  160.9352 C.3     1  UNL1        0.1437
     34 C         138.5547  138.4561  162.3236 C.3     1  UNL1        0.0503
     35 C         137.9915  139.8080  162.6480 C.3     1  UNL1        0.0865
     36 C         138.2704  143.3529  162.2311 C.3     1  UNL1        0.1742
     37 O         137.3488  142.2142  161.9084 O.3     1  UNL1       -0.3496
@<TRIPOS>BOND
     1    36    37    1
     2    37    30    1
     3    30    31    1
     4    31    32    1
     5    32    33    1
     6    33    34    1
     7    34    35    1
     8    35    28    1
     9     1    28    1
    10     1     2    1
    11     3     2    1
    12     3     4    1
    13     4     5    1
    14     5    25    1
    15    25    26    1
    16    25    27    1
    17     5     6    1
    18     6     7    1
    19     7     9    1
    20     9    10    2
    21     9    11   am
    22    11    12    1
    23    12    13    1
    24    13    14    1
    25    14    15   ar
    26    15    16   ar
    27    16    17   ar
    28    17    21    1
    29    21    22    1
    30    21    23    1
    31    21    24    1
    32    17    18   ar
    33    18    19   ar
    34    19    20    1
    35     7     8    1
    36    35    30    1
    37     8     1    1
    38     7     3    1
    39    20    11    1
    40    19    14   ar
    41    28    29    1
@<TRIPOS>MOLECULE
*****
 37 41 0 0 0
SMALL
GASTEIGER

@<TRIPOS>ATOM
      1 C         138.8573  143.2117  164.6812 C.3     1  UNL1        0.0546
      2 C         139.6101  143.7676  165.8535 C.3     1  UNL1        0.0176
      3 C         140.0030  142.6215  166.7378 C.3     1  UNL1        0.0268
      4 C         140.7111  142.2567  168.0088 C.3     1  UNL1        0.0726
      5 N         140.6388  140.7670  168.1686 N.3     1  UNL1       -0.2735
      6 C         139.8859  140.2111  166.9964 C.3     1  UNL1        0.0807
      7 C         139.4930  141.3572  166.1121 C.3     1  UNL1        0.0863
      8 C         138.7849  141.7220  164.8411 C.3     1  UNL1        0.0257
      9 C         138.9830  140.0930  165.4863 C.2     1  UNL1        0.2264
     10 O         137.9468  139.2710  166.1938 O.2     1  UNL1       -0.2748
     11 N         139.5093  139.6507  164.1531 N.am    1  UNL1       -0.2750
     12 C         138.9993  138.3865  163.5273 C.3     1  UNL1        0.1000
     13 C         139.5255  137.9443  162.1941 C.3     1  UNL1        0.0670
     14 C         140.5618  138.7663  161.4867 C.ar    1  UNL1        0.0583
     15 N         141.0880  138.3240  160.1534 N.ar    1  UNL1       -0.2484
     16 C         142.1243  139.1460  159.4459 C.ar    1  UNL1        0.1023
     17 C         142.6342  140.4103  160.0717 C.ar    1  UNL1        0.0902
     18 C         142.1080  140.8525  161.4049 C.ar    1  UNL1        0.0040
     19 C         141.0718  140.0305  162.1124 C.ar    1  UNL1        0.0113
     20 C         140.5455  140.4727  163.4456 C.3     1  UNL1        0.1213
     21 C         143.6705  141.2323  159.3643 C.3     1  UNL1        0.4200
     22 F         144.7067  142.0544  158.6568 F       1  UNL1       -0.1658
     23 F         144.2410  139.9870  158.7530 F       1  UNL1       -0.1658
     24 F         143.0999  142.4777  159.9756 F       1  UNL1       -0.1658
     25 C         141.2176  139.9727  169.3018 C.3     1  UNL1        0.0576
     26 C         140.4964  139.9044  170.6152 C.3     1  UNL1        0.0173
     27 C         142.5178  139.2467  169.1215 C.3     1  UNL1        0.0173
     28 N         138.2784  144.0061  163.5481 N.3     1  UNL1       -0.2975
     29 H         137.2749  143.8232  163.5427 H       1  UNL1        0.1232
     30 C         139.8663  144.6358  161.5906 C.3     1  UNL1        0.1591
     31 C         140.3549  144.4107  160.1904 C.3     1  UNL1        0.1729
     32 O         139.7442  143.3307  159.3475 O.3     1  UNL1       -0.3511
     33 C         138.6448  142.4757  159.9047 C.3     1  UNL1        0.1437
     34 C         138.1562  142.7008  161.3050 C.3     1  UNL1        0.0503
     35 C         138.7670  143.7809  162.1479 C.3     1  UNL1        0.0865
     36 C         141.6663  145.4121  163.2957 C.3     1  UNL1        0.1742
     37 O         140.4770  145.7159  162.4335 O.3     1  UNL1       -0.3496
@<TRIPOS>BOND
     1    36    37    1
     2    37    30    1
     3    30    31    1
     4    31    32    1
     5    32    33    1
     6    33    34    1
     7    34    35    1
     8    35    28    1
     9     1    28    1
    10     1     2    1
    11     3     2    1
    12     3     4    1
    13     4     5    1
    14     5    25    1
    15    25    26    1
    16    25    27    1
    17     5     6    1
    18     6     7    1
    19     7     9    1
    20     9    10    2
    21     9    11   am
    22    11    12    1
    23    12    13    1
    24    13    14    1
    25    14    15   ar
    26    15    16   ar
    27    16    17   ar
    28    17    21    1
    29    21    22    1
    30    21    23    1
    31    21    24    1
    32    17    18   ar
    33    18    19   ar
    34    19    20    1
    35     7     8    1
    36    35    30    1
    37     8     1    1
    38     7     3    1
    39    20    11    1
    40    19    14   ar
    41    28    29    1
