@<TRIPOS>MOLECULE
*****
 52 59 0 0 0
SMALL
GASTEIGER

@<TRIPOS>ATOM
      1 C         142.0697  139.3923  158.4644 C.ar    1  UNL1       -0.0061
      2 C         141.3948  140.7097  158.7068 C.ar    1  UNL1       -0.0029
      3 C         140.1654  141.0767  157.9298 C.ar    1  UNL1        0.0012
      4 C         139.6108  140.1262  156.9105 C.ar    1  UNL1        0.0177
      5 C         140.2857  138.8088  156.6681 C.ar    1  UNL1        0.0012
      6 C         141.5151  138.4418  157.4451 C.ar    1  UNL1       -0.0029
      7 C         138.3813  140.4933  156.1334 C.ar    1  UNL1        0.0829
      8 N         137.0225  140.1994  156.6967 N.ar    1  UNL1       -0.2264
      9 C         135.7930  140.5664  155.9197 C.ar    1  UNL1        0.1666
     10 N         134.4343  140.2725  156.4830 N.ar    1  UNL1       -0.1945
     11 C         133.2049  140.6396  155.7060 C.ar    1  UNL1        0.2216
     12 N         133.3342  141.3006  154.3657 N.ar    1  UNL1       -0.2120
     13 C         134.6930  141.5945  153.8024 C.ar    1  UNL1        0.1048
     14 C         135.9224  141.2274  154.5794 C.ar    1  UNL1        0.0551
     15 C         137.2812  141.5213  154.0161 C.ar    1  UNL1        0.0061
     16 C         138.5106  141.1542  154.7931 C.ar    1  UNL1        0.0179
     17 N         131.8460  140.3457  156.2693 N.pl3   1  UNL1       -0.2753
     18 C         131.7006  139.3925  157.4184 C.3     1  UNL1        0.1109
     19 C         130.3418  139.0986  157.9817 C.3     1  UNL1        0.0940
     20 N         129.1284  139.7579  157.3959 N.3     1  UNL1       -0.2677
     21 C         129.2738  140.7111  156.2468 C.3     1  UNL1        0.0940
     22 C         130.6327  141.0050  155.6835 C.3     1  UNL1        0.1109
     23 C         127.7696  139.4640  157.9592 C.3     1  UNL1        0.1043
     24 C         127.3388  140.0986  159.2483 C.3     1  UNL1        0.1544
     25 O         128.1475  139.8896  160.4941 O.3     1  UNL1       -0.3805
     26 H         128.1084  138.9554  160.7521 H       1  UNL1        0.2105
     27 C         139.8695  141.4481  154.2298 C.ar    1  UNL1        0.0015
     28 C         140.5523  142.7434  154.5557 C.ar    1  UNL1        0.0000
     29 C         141.9111  143.0373  153.9924 C.ar    1  UNL1        0.0000
     30 C         142.5871  142.0360  153.1034 C.ar    1  UNL1        0.0000
     31 C         141.9042  140.7408  152.7775 C.ar    1  UNL1        0.0000
     32 C         140.5454  140.4469  153.3408 C.ar    1  UNL1        0.0000
     33 C         143.2992  139.0252  159.2414 C.3     1  UNL1        0.0991
     34 C         143.1909  138.9901  163.7400 C.3     1  UNL1        0.0613
     35 C         144.0851  139.9546  163.0188 C.3     1  UNL1        0.0249
     36 C         144.1211  139.9663  161.5192 C.3     1  UNL1        0.0728
     37 N         143.2631  139.0135  160.7409 N.3     1  UNL1       -0.2689
     38 C         142.3689  138.0490  161.4621 C.3     1  UNL1        0.0728
     39 C         142.3328  138.0372  162.9616 C.3     1  UNL1        0.0249
     40 C         142.6377  139.5516  167.5405 C.ar    1  UNL1        0.1633
     41 N         143.5608  138.3692  167.5535 N.ar    1  UNL1       -0.1293
     42 N         143.8803  138.0150  166.1314 N.ar    1  UNL1       -0.1336
     43 C         143.1548  138.9784  165.2395 C.ar    1  UNL1        0.1396
     44 N         142.3868  139.9280  166.1103 N.ar    1  UNL1       -0.3246
     45 H         141.8180  140.6684  165.7981 H       1  UNL1        0.1686
     46 O         140.3506  142.2935  172.3625 O.co2   1  UNL1       -0.6187
     47 N         140.9224  141.6080  171.1570 N.ar    1  UNL1       -0.1519
     48 C         140.0944  140.6159  170.3951 C.ar    1  UNL1        0.3019
     49 C         140.6662  139.9305  169.1897 C.ar    1  UNL1        0.0802
     50 C         142.0659  140.2370  168.7460 C.ar    1  UNL1        0.0480
     51 C         142.8939  141.2291  169.5078 C.ar    1  UNL1        0.0802
     52 C         142.3221  141.9146  170.7133 C.ar    1  UNL1        0.3019
@<TRIPOS>UNITY_ATOM_ATTR
46 1
charge -1
47 1
charge 1
@<TRIPOS>BOND
     1    46    47    1
     2    47    48   ar
     3    48    49   ar
     4    49    50   ar
     5    50    40    1
     6    40    41   ar
     7    41    42   ar
     8    42    43   ar
     9    43    34    1
    10    34    35    1
    11    35    36    1
    12    36    37    1
    13    37    33    1
    14    33     1    1
    15     1     2   ar
    16     2     3   ar
    17     3     4   ar
    18     4     7    1
    19     7     8   ar
    20     8     9   ar
    21     9    10   ar
    22    10    11   ar
    23    11    17    1
    24    17    18    1
    25    18    19    1
    26    19    20    1
    27    20    23    1
    28    23    24    1
    29    24    25    1
    30    20    21    1
    31    21    22    1
    32    11    12   ar
    33    12    13   ar
    34    13    14   ar
    35    14    15   ar
    36    15    16   ar
    37    16    27    1
    38    27    28   ar
    39    28    29   ar
    40    29    30   ar
    41    30    31   ar
    42    31    32   ar
    43     4     5   ar
    44     5     6   ar
    45    37    38    1
    46    38    39    1
    47    43    44   ar
    48    50    51   ar
    49    51    52   ar
    50    52    47   ar
    51    44    40   ar
    52    39    34    1
    53     6     1   ar
    54    16     7   ar
    55    32    27   ar
    56    14     9   ar
    57    22    17    1
    58    25    26    1
    59    44    45    1
@<TRIPOS>MOLECULE
*****
 52 59 0 0 0
SMALL
GASTEIGER

@<TRIPOS>ATOM
      1 C         142.0506  139.0783  155.9967 C.ar    1  UNL1       -0.0061
      2 C         140.6724  139.4522  156.4557 C.ar    1  UNL1       -0.0029
      3 C         140.4944  140.4726  157.5406 C.ar    1  UNL1        0.0012
      4 C         141.6945  141.1192  158.1664 C.ar    1  UNL1        0.0177
      5 C         143.0727  140.7453  157.7074 C.ar    1  UNL1        0.0012
      6 C         143.2507  139.7248  156.6225 C.ar    1  UNL1       -0.0029
      7 C         141.5164  142.1396  159.2513 C.ar    1  UNL1        0.0829
      8 N         141.6257  141.7312  160.6905 N.ar    1  UNL1       -0.2264
      9 C         141.4476  142.7516  161.7754 C.ar    1  UNL1        0.1666
     10 N         141.5569  142.3431  163.2145 N.ar    1  UNL1       -0.1945
     11 C         141.3788  143.3636  164.2994 C.ar    1  UNL1        0.2216
     12 N         141.0914  144.7925  163.9451 N.ar    1  UNL1       -0.2120
     13 C         140.9820  145.2010  162.5059 C.ar    1  UNL1        0.1048
     14 C         141.1602  144.1806  161.4211 C.ar    1  UNL1        0.0551
     15 C         141.0508  144.5890  159.9819 C.ar    1  UNL1        0.0061
     16 C         141.2289  143.5686  158.8970 C.ar    1  UNL1        0.0179
     17 N         141.4881  142.9551  165.7386 N.pl3   1  UNL1       -0.2753
     18 C         142.7681  142.3693  166.2568 C.3     1  UNL1        0.1109
     19 C         142.8774  141.9608  167.6959 C.3     1  UNL1        0.0940
     20 N         141.7068  142.1382  168.6169 N.3     1  UNL1       -0.2677
     21 C         140.4269  142.7241  168.0988 C.3     1  UNL1        0.0940
     22 C         140.3175  143.1325  166.6595 C.3     1  UNL1        0.1109
     23 C         141.8162  141.7298  170.0561 C.3     1  UNL1        0.1043
     24 C         141.0898  140.5129  170.5476 C.3     1  UNL1        0.1544
     25 O         140.6431  140.4325  171.9773 O.3     1  UNL1       -0.3805
     26 H         141.4199  140.4034  172.5576 H       1  UNL1        0.2105
     27 C         141.1196  143.9770  157.4578 C.ar    1  UNL1        0.0015
     28 C         139.7742  144.0479  156.7985 C.ar    1  UNL1        0.0000
     29 C         139.6648  144.4564  155.3593 C.ar    1  UNL1        0.0000
     30 C         140.9009  144.7939  154.5795 C.ar    1  UNL1        0.0000
     31 C         142.2463  144.7230  155.2389 C.ar    1  UNL1        0.0000
     32 C         142.3557  144.3146  156.6780 C.ar    1  UNL1        0.0000
     33 C         142.2287  138.0578  154.9117 C.3     1  UNL1        0.0991
     34 C         142.6570  133.7041  155.9662 C.3     1  UNL1        0.0613
     35 C         143.8034  134.6458  156.1876 C.3     1  UNL1        0.0249
     36 C         143.6606  136.0970  155.8361 C.3     1  UNL1        0.0728
     37 N         142.3714  136.6066  155.2632 N.3     1  UNL1       -0.2689
     38 C         141.2250  135.6650  155.0418 C.3     1  UNL1        0.0728
     39 C         141.3677  134.2138  155.3933 C.3     1  UNL1        0.0249
     40 C         143.3673  130.2083  157.4956 C.ar    1  UNL1        0.1633
     41 N         142.6715  129.8312  156.2214 N.ar    1  UNL1       -0.1293
     42 N         142.3207  131.0949  155.4934 N.ar    1  UNL1       -0.1336
     43 C         142.7997  132.2529  156.3176 C.ar    1  UNL1        0.1396
     44 N         143.4466  131.7050  157.5551 N.ar    1  UNL1       -0.3246
     45 H         143.8520  132.2347  158.2792 H       1  UNL1        0.1686
     46 O         145.4654  126.3985  161.6290 O.co2   1  UNL1       -0.6187
     47 N         144.9409  127.3509  160.5956 N.ar    1  UNL1       -0.1519
     48 C         145.8955  128.1536  159.7621 C.ar    1  UNL1        0.3019
     49 C         145.3709  129.1060  158.7288 C.ar    1  UNL1        0.0802
     50 C         143.8919  129.2558  158.5290 C.ar    1  UNL1        0.0480
     51 C         142.9373  128.4532  159.3624 C.ar    1  UNL1        0.0802
     52 C         143.4618  127.5008  160.3958 C.ar    1  UNL1        0.3019
@<TRIPOS>UNITY_ATOM_ATTR
46 1
charge -1
47 1
charge 1
@<TRIPOS>BOND
     1    46    47    1
     2    47    48   ar
     3    48    49   ar
     4    49    50   ar
     5    50    40    1
     6    40    41   ar
     7    41    42   ar
     8    42    43   ar
     9    43    34    1
    10    34    35    1
    11    35    36    1
    12    36    37    1
    13    37    33    1
    14    33     1    1
    15     1     2   ar
    16     2     3   ar
    17     3     4   ar
    18     4     7    1
    19     7     8   ar
    20     8     9   ar
    21     9    10   ar
    22    10    11   ar
    23    11    17    1
    24    17    18    1
    25    18    19    1
    26    19    20    1
    27    20    23    1
    28    23    24    1
    29    24    25    1
    30    20    21    1
    31    21    22    1
    32    11    12   ar
    33    12    13   ar
    34    13    14   ar
    35    14    15   ar
    36    15    16   ar
    37    16    27    1
    38    27    28   ar
    39    28    29   ar
    40    29    30   ar
    41    30    31   ar
    42    31    32   ar
    43     4     5   ar
    44     5     6   ar
    45    37    38    1
    46    38    39    1
    47    43    44   ar
    48    50    51   ar
    49    51    52   ar
    50    52    47   ar
    51    44    40   ar
    52    39    34    1
    53     6     1   ar
    54    16     7   ar
    55    32    27   ar
    56    14     9   ar
    57    22    17    1
    58    25    26    1
    59    44    45    1
@<TRIPOS>MOLECULE
*****
 52 59 0 0 0
SMALL
GASTEIGER

@<TRIPOS>ATOM
      1 C         142.6889  140.3940  157.9016 C.ar    1  UNL1       -0.0061
      2 C         141.5620  139.5570  158.4303 C.ar    1  UNL1       -0.0029
      3 C         141.3401  138.1735  157.8948 C.ar    1  UNL1        0.0012
      4 C         142.2450  137.6271  156.8306 C.ar    1  UNL1        0.0177
      5 C         143.3719  138.4640  156.3019 C.ar    1  UNL1        0.0012
      6 C         143.5938  139.8475  156.8374 C.ar    1  UNL1       -0.0029
      7 C         142.0230  136.2436  156.2951 C.ar    1  UNL1        0.0829
      8 N         142.6403  135.0639  156.9860 N.ar    1  UNL1       -0.2264
      9 C         142.4183  133.6804  156.4505 C.ar    1  UNL1        0.1666
     10 N         143.0356  132.5008  157.1414 N.ar    1  UNL1       -0.1945
     11 C         142.8136  131.1174  156.6059 C.ar    1  UNL1        0.2216
     12 N         141.9743  130.9136  155.3796 N.ar    1  UNL1       -0.2120
     13 C         141.3570  132.0932  154.6887 C.ar    1  UNL1        0.1048
     14 C         141.5790  133.4766  155.2241 C.ar    1  UNL1        0.0551
     15 C         140.9617  134.6563  154.5332 C.ar    1  UNL1        0.0061
     16 C         141.1837  136.0397  155.0687 C.ar    1  UNL1        0.0179
     17 N         143.4309  129.9376  157.2968 N.pl3   1  UNL1       -0.2753
     18 C         142.9058  128.5569  157.0366 C.3     1  UNL1        0.1109
     19 C         143.5230  127.3772  157.7275 C.3     1  UNL1        0.0940
     20 N         144.6655  127.5782  158.6786 N.3     1  UNL1       -0.2677
     21 C         145.1906  128.9590  158.9388 C.3     1  UNL1        0.0940
     22 C         144.5733  130.1387  158.2479 C.3     1  UNL1        0.1109
     23 C         145.2827  126.3986  159.3694 C.3     1  UNL1        0.1043
     24 C         146.0106  126.5860  160.6675 C.3     1  UNL1        0.1544
     25 O         145.2445  126.8987  161.9186 O.3     1  UNL1       -0.3805
     26 H         144.8329  127.7731  161.8356 H       1  UNL1        0.2105
     27 C         140.5664  137.2195  154.3778 C.ar    1  UNL1        0.0015
     28 C         141.3048  137.9108  153.2702 C.ar    1  UNL1        0.0000
     29 C         140.6876  139.0905  152.5794 C.ar    1  UNL1        0.0000
     30 C         139.3319  139.5788  152.9960 C.ar    1  UNL1        0.0000
     31 C         138.5935  138.8874  154.1036 C.ar    1  UNL1        0.0000
     32 C         139.2107  137.7078  154.7945 C.ar    1  UNL1        0.0000
     33 C         142.9109  141.7775  158.4370 C.3     1  UNL1        0.0991
     34 C         143.3814  142.4278  162.8649 C.3     1  UNL1        0.0613
     35 C         142.0158  142.4487  162.2447 C.3     1  UNL1        0.0249
     36 C         141.8590  142.2320  160.7687 C.3     1  UNL1        0.0728
     37 N         143.0677  141.9942  159.9129 N.3     1  UNL1       -0.2689
     38 C         144.4334  141.9732  160.5331 C.3     1  UNL1        0.0728
     39 C         144.5902  142.1900  162.0090 C.3     1  UNL1        0.0249
     40 C         143.0989  142.6852  166.7273 C.ar    1  UNL1        0.1633
     41 N         144.4605  143.2709  166.4967 N.ar    1  UNL1       -0.1293
     42 N         144.7320  143.2457  165.0217 N.ar    1  UNL1       -0.1336
     43 C         143.5383  142.6445  164.3408 C.ar    1  UNL1        0.1396
     44 N         142.5290  142.2981  165.3949 N.ar    1  UNL1       -0.3246
     45 H         141.6473  141.8886  165.2396 H       1  UNL1        0.1686
     46 O         140.4052  142.0097  172.0461 O.co2   1  UNL1       -0.6187
     47 N         141.0787  142.1786  170.7164 N.ar    1  UNL1       -0.1519
     48 C         140.2545  142.3332  169.4726 C.ar    1  UNL1        0.3019
     49 C         140.9280  142.5021  168.1429 C.ar    1  UNL1        0.0802
     50 C         142.4255  142.5164  168.0570 C.ar    1  UNL1        0.0480
     51 C         143.2495  142.3618  169.3008 C.ar    1  UNL1        0.0802
     52 C         142.5761  142.1929  170.6305 C.ar    1  UNL1        0.3019
@<TRIPOS>UNITY_ATOM_ATTR
46 1
charge -1
47 1
charge 1
@<TRIPOS>BOND
     1    46    47    1
     2    47    48   ar
     3    48    49   ar
     4    49    50   ar
     5    50    40    1
     6    40    41   ar
     7    41    42   ar
     8    42    43   ar
     9    43    34    1
    10    34    35    1
    11    35    36    1
    12    36    37    1
    13    37    33    1
    14    33     1    1
    15     1     2   ar
    16     2     3   ar
    17     3     4   ar
    18     4     7    1
    19     7     8   ar
    20     8     9   ar
    21     9    10   ar
    22    10    11   ar
    23    11    17    1
    24    17    18    1
    25    18    19    1
    26    19    20    1
    27    20    23    1
    28    23    24    1
    29    24    25    1
    30    20    21    1
    31    21    22    1
    32    11    12   ar
    33    12    13   ar
    34    13    14   ar
    35    14    15   ar
    36    15    16   ar
    37    16    27    1
    38    27    28   ar
    39    28    29   ar
    40    29    30   ar
    41    30    31   ar
    42    31    32   ar
    43     4     5   ar
    44     5     6   ar
    45    37    38    1
    46    38    39    1
    47    43    44   ar
    48    50    51   ar
    49    51    52   ar
    50    52    47   ar
    51    44    40   ar
    52    39    34    1
    53     6     1   ar
    54    16     7   ar
    55    32    27   ar
    56    14     9   ar
    57    22    17    1
    58    25    26    1
    59    44    45    1
@<TRIPOS>MOLECULE
*****
 52 59 0 0 0
SMALL
GASTEIGER

@<TRIPOS>ATOM
      1 C         138.1229  140.9040  158.5269 C.ar    1  UNL1       -0.0061
      2 C         137.2209  141.4135  157.4420 C.ar    1  UNL1       -0.0029
      3 C         137.7289  142.4249  156.4578 C.ar    1  UNL1        0.0012
      4 C         139.1388  142.9269  156.5583 C.ar    1  UNL1        0.0177
      5 C         140.0408  142.4175  157.6431 C.ar    1  UNL1        0.0012
      6 C         139.5328  141.4060  158.6274 C.ar    1  UNL1       -0.0029
      7 C         139.6468  143.9384  155.5740 C.ar    1  UNL1        0.0829
      8 N         139.3461  145.3945  155.7722 N.ar    1  UNL1       -0.2264
      9 C         139.8541  146.4061  154.7878 C.ar    1  UNL1        0.1666
     10 N         139.5534  147.8622  154.9860 N.ar    1  UNL1       -0.1945
     11 C         140.0614  148.8736  154.0017 C.ar    1  UNL1        0.2216
     12 N         140.8700  148.4289  152.8192 N.ar    1  UNL1       -0.2120
     13 C         141.1707  146.9728  152.6210 C.ar    1  UNL1        0.1048
     14 C         140.6627  145.9614  153.6053 C.ar    1  UNL1        0.0551
     15 C         140.9634  144.5052  153.4071 C.ar    1  UNL1        0.0061
     16 C         140.4554  143.4938  154.3914 C.ar    1  UNL1        0.0179
     17 N         139.7607  150.3298  154.1999 N.pl3   1  UNL1       -0.2753
     18 C         140.2152  151.3346  153.1831 C.3     1  UNL1        0.1109
     19 C         139.9146  152.7907  153.3812 C.3     1  UNL1        0.0940
     20 N         139.1595  153.2421  154.5962 N.3     1  UNL1       -0.2677
     21 C         138.7050  152.2373  155.6130 C.3     1  UNL1        0.0940
     22 C         139.0056  150.7811  155.4148 C.3     1  UNL1        0.1109
     23 C         138.8588  154.6982  154.7943 C.3     1  UNL1        0.1043
     24 C         137.5475  155.2627  154.3341 C.3     1  UNL1        0.1544
     25 O         136.7338  154.5297  153.3091 O.3     1  UNL1       -0.3805
     26 H         137.2111  154.5188  152.4648 H       1  UNL1        0.2105
     27 C         140.7561  142.0376  154.1933 C.ar    1  UNL1        0.0015
     28 C         142.0409  141.4601  154.7089 C.ar    1  UNL1        0.0000
     29 C         142.3415  140.0040  154.5108 C.ar    1  UNL1        0.0000
     30 C         141.3575  139.1254  153.7970 C.ar    1  UNL1        0.0000
     31 C         140.0727  139.7029  153.2813 C.ar    1  UNL1        0.0000
     32 C         139.7720  141.1590  153.4794 C.ar    1  UNL1        0.0000
     33 C         137.6149  139.8925  159.5112 C.3     1  UNL1        0.0991
     34 C         138.7490  140.2126  163.8542 C.3     1  UNL1        0.0613
     35 C         138.1198  141.3811  163.1552 C.3     1  UNL1        0.0249
     36 C         137.7417  141.2744  161.7075 C.3     1  UNL1        0.0728
     37 N         137.9929  139.9992  160.9588 N.3     1  UNL1       -0.2689
     38 C         138.6222  138.8306  161.6578 C.3     1  UNL1        0.0728
     39 C         139.0002  138.9373  163.1054 C.3     1  UNL1        0.0249
     40 C         140.1741  141.0485  167.3663 C.ar    1  UNL1        0.1633
     41 N         139.2435  139.9183  167.6927 N.ar    1  UNL1       -0.1293
     42 N         138.5964  139.4676  166.4167 N.ar    1  UNL1       -0.1336
     43 C         139.1270  140.3192  165.3018 C.ar    1  UNL1        0.1396
     44 N         140.1021  141.2963  165.8887 N.ar    1  UNL1       -0.3246
     45 H         140.6064  141.9802  165.3914 H       1  UNL1        0.1686
     46 O         143.5856  144.0512  171.2838 O.co2   1  UNL1       -0.6187
     47 N         142.7328  143.3006  170.3044 N.ar    1  UNL1       -0.1519
     48 C         141.2642  143.5917  170.2114 C.ar    1  UNL1        0.3019
     49 C         140.4114  142.8410  169.2320 C.ar    1  UNL1        0.0802
     50 C         141.0270  141.7992  168.3457 C.ar    1  UNL1        0.0480
     51 C         142.4955  141.5081  168.4387 C.ar    1  UNL1        0.0802
     52 C         143.3484  142.2588  169.4180 C.ar    1  UNL1        0.3019
@<TRIPOS>UNITY_ATOM_ATTR
46 1
charge -1
47 1
charge 1
@<TRIPOS>BOND
     1    46    47    1
     2    47    48   ar
     3    48    49   ar
     4    49    50   ar
     5    50    40    1
     6    40    41   ar
     7    41    42   ar
     8    42    43   ar
     9    43    34    1
    10    34    35    1
    11    35    36    1
    12    36    37    1
    13    37    33    1
    14    33     1    1
    15     1     2   ar
    16     2     3   ar
    17     3     4   ar
    18     4     7    1
    19     7     8   ar
    20     8     9   ar
    21     9    10   ar
    22    10    11   ar
    23    11    17    1
    24    17    18    1
    25    18    19    1
    26    19    20    1
    27    20    23    1
    28    23    24    1
    29    24    25    1
    30    20    21    1
    31    21    22    1
    32    11    12   ar
    33    12    13   ar
    34    13    14   ar
    35    14    15   ar
    36    15    16   ar
    37    16    27    1
    38    27    28   ar
    39    28    29   ar
    40    29    30   ar
    41    30    31   ar
    42    31    32   ar
    43     4     5   ar
    44     5     6   ar
    45    37    38    1
    46    38    39    1
    47    43    44   ar
    48    50    51   ar
    49    51    52   ar
    50    52    47   ar
    51    44    40   ar
    52    39    34    1
    53     6     1   ar
    54    16     7   ar
    55    32    27   ar
    56    14     9   ar
    57    22    17    1
    58    25    26    1
    59    44    45    1
@<TRIPOS>MOLECULE
*****
 52 59 0 0 0
SMALL
GASTEIGER

@<TRIPOS>ATOM
      1 C         142.4799  141.2555  160.9610 C.ar    1  UNL1       -0.0061
      2 C         141.5583  140.1641  161.4186 C.ar    1  UNL1       -0.0029
      3 C         141.2815  139.9806  162.8814 C.ar    1  UNL1        0.0012
      4 C         141.9261  140.8884  163.8864 C.ar    1  UNL1        0.0177
      5 C         142.8477  141.9799  163.4288 C.ar    1  UNL1        0.0012
      6 C         143.1246  142.1634  161.9660 C.ar    1  UNL1       -0.0029
      7 C         141.6492  140.7049  165.3492 C.ar    1  UNL1        0.0829
      8 N         142.5517  139.8425  166.1809 N.ar    1  UNL1       -0.2264
      9 C         142.2748  139.6589  167.6437 C.ar    1  UNL1        0.1666
     10 N         143.1773  138.7966  168.4755 N.ar    1  UNL1       -0.1945
     11 C         142.9003  138.6131  169.9382 C.ar    1  UNL1        0.2216
     12 N         141.7209  139.2919  170.5692 N.ar    1  UNL1       -0.2120
     13 C         140.8184  140.1542  169.7374 C.ar    1  UNL1        0.1048
     14 C         141.0953  140.3377  168.2747 C.ar    1  UNL1        0.0551
     15 C         140.1928  141.2001  167.4429 C.ar    1  UNL1        0.0061
     16 C         140.4698  141.3836  165.9802 C.ar    1  UNL1        0.0179
     17 N         143.8029  137.7507  170.7700 N.pl3   1  UNL1       -0.2753
     18 C         144.7493  138.3806  171.7486 C.3     1  UNL1        0.1109
     19 C         145.6518  137.5183  172.5804 C.3     1  UNL1        0.0940
     20 N         145.6079  136.0261  172.4336 N.3     1  UNL1       -0.2677
     21 C         144.6615  135.3962  171.4550 C.3     1  UNL1        0.0940
     22 C         143.7590  136.2586  170.6232 C.3     1  UNL1        0.1109
     23 C         146.5104  135.1638  173.2654 C.3     1  UNL1        0.1043
     24 C         146.9627  135.6351  174.6157 C.3     1  UNL1        0.1544
     25 O         146.4200  134.9894  175.8560 O.3     1  UNL1       -0.3805
     26 H         145.4708  135.1757  175.9287 H       1  UNL1        0.2105
     27 C         139.5672  142.2460  165.1484 C.ar    1  UNL1        0.0015
     28 C         138.3312  141.6617  164.5312 C.ar    1  UNL1        0.0000
     29 C         137.4287  142.5240  163.6994 C.ar    1  UNL1        0.0000
     30 C         137.7622  143.9706  163.4848 C.ar    1  UNL1        0.0000
     31 C         138.9982  144.5549  164.1020 C.ar    1  UNL1        0.0000
     32 C         139.9007  143.6926  164.9338 C.ar    1  UNL1        0.0000
     33 C         142.7568  141.4391  159.4982 C.3     1  UNL1        0.0991
     34 C         140.5364  144.5815  157.1649 C.3     1  UNL1        0.0613
     35 C         139.8911  143.2555  157.4395 C.3     1  UNL1        0.0249
     36 C         140.6314  142.2080  158.2173 C.3     1  UNL1        0.0728
     37 N         142.0167  142.4866  158.7204 N.3     1  UNL1       -0.2689
     38 C         142.6619  143.8126  158.4458 C.3     1  UNL1        0.0728
     39 C         141.9218  144.8600  157.6681 C.3     1  UNL1        0.0249
     40 C         139.1730  147.7496  155.3846 C.ar    1  UNL1        0.1633
     41 N         138.1415  146.7323  154.9959 N.ar    1  UNL1       -0.1293
     42 N         138.5267  145.4217  155.6156 N.ar    1  UNL1       -0.1336
     43 C         139.7962  145.6290  156.3871 C.ar    1  UNL1        0.1396
     44 N         140.1957  147.0678  156.2443 N.ar    1  UNL1       -0.3246
     45 H         140.9897  147.4903  156.6446 H       1  UNL1        0.1686
     46 O         139.2031  153.5315  153.7813 O.co2   1  UNL1       -0.6187
     47 N         139.1956  152.0860  154.1821 N.ar    1  UNL1       -0.1519
     48 C         138.5474  151.6678  155.4686 C.ar    1  UNL1        0.3019
     49 C         138.5399  150.2223  155.8694 C.ar    1  UNL1        0.0802
     50 C         139.1806  149.1951  154.9837 C.ar    1  UNL1        0.0480
     51 C         139.8287  149.6133  153.6973 C.ar    1  UNL1        0.0802
     52 C         139.8363  151.0588  153.2965 C.ar    1  UNL1        0.3019
@<TRIPOS>UNITY_ATOM_ATTR
46 1
charge -1
47 1
charge 1
@<TRIPOS>BOND
     1    46    47    1
     2    47    48   ar
     3    48    49   ar
     4    49    50   ar
     5    50    40    1
     6    40    41   ar
     7    41    42   ar
     8    42    43   ar
     9    43    34    1
    10    34    35    1
    11    35    36    1
    12    36    37    1
    13    37    33    1
    14    33     1    1
    15     1     2   ar
    16     2     3   ar
    17     3     4   ar
    18     4     7    1
    19     7     8   ar
    20     8     9   ar
    21     9    10   ar
    22    10    11   ar
    23    11    17    1
    24    17    18    1
    25    18    19    1
    26    19    20    1
    27    20    23    1
    28    23    24    1
    29    24    25    1
    30    20    21    1
    31    21    22    1
    32    11    12   ar
    33    12    13   ar
    34    13    14   ar
    35    14    15   ar
    36    15    16   ar
    37    16    27    1
    38    27    28   ar
    39    28    29   ar
    40    29    30   ar
    41    30    31   ar
    42    31    32   ar
    43     4     5   ar
    44     5     6   ar
    45    37    38    1
    46    38    39    1
    47    43    44   ar
    48    50    51   ar
    49    51    52   ar
    50    52    47   ar
    51    44    40   ar
    52    39    34    1
    53     6     1   ar
    54    16     7   ar
    55    32    27   ar
    56    14     9   ar
    57    22    17    1
    58    25    26    1
    59    44    45    1
@<TRIPOS>MOLECULE
*****
 52 59 0 0 0
SMALL
GASTEIGER

@<TRIPOS>ATOM
      1 C         140.3617  140.5985  157.9905 C.ar    1  UNL1       -0.0061
      2 C         139.4525  141.6658  158.5235 C.ar    1  UNL1       -0.0029
      3 C         138.0556  141.7949  157.9926 C.ar    1  UNL1        0.0012
      4 C         137.5679  140.8567  156.9287 C.ar    1  UNL1        0.0177
      5 C         138.4771  139.7893  156.3957 C.ar    1  UNL1        0.0012
      6 C         139.8740  139.6602  156.9266 C.ar    1  UNL1       -0.0029
      7 C         136.1709  140.9858  156.3977 C.ar    1  UNL1        0.0829
      8 N         135.0549  140.2041  157.0251 N.ar    1  UNL1       -0.2264
      9 C         133.6579  140.3333  156.4941 C.ar    1  UNL1        0.1666
     10 N         132.5419  139.5516  157.1214 N.ar    1  UNL1       -0.1945
     11 C         131.1450  139.6808  156.5905 C.ar    1  UNL1        0.2216
     12 N         130.8641  140.5916  155.4323 N.ar    1  UNL1       -0.2120
     13 C         131.9801  141.3733  154.8050 C.ar    1  UNL1        0.1048
     14 C         133.3770  141.2441  155.3359 C.ar    1  UNL1        0.0551
     15 C         134.4931  142.0258  154.7086 C.ar    1  UNL1        0.0061
     16 C         135.8900  141.8966  155.2395 C.ar    1  UNL1        0.0179
     17 N         130.0289  138.8991  157.2178 N.pl3   1  UNL1       -0.2753
     18 C         129.5861  139.2142  158.6159 C.3     1  UNL1        0.1109
     19 C         128.4701  138.4326  159.2432 C.3     1  UNL1        0.0940
     20 N         127.7969  137.3359  158.4724 N.3     1  UNL1       -0.2677
     21 C         128.2397  137.0208  157.0743 C.3     1  UNL1        0.0940
     22 C         129.3557  137.8025  156.4470 C.3     1  UNL1        0.1109
     23 C         126.6809  136.5543  159.0998 C.3     1  UNL1        0.1043
     24 C         126.7333  136.2113  160.5591 C.3     1  UNL1        0.1544
     25 O         127.9187  135.4798  161.1155 O.3     1  UNL1       -0.3805
     26 H         127.9543  134.5871  160.7376 H       1  UNL1        0.2105
     27 C         137.0060  142.6783  154.6122 C.ar    1  UNL1        0.0015
     28 C         137.3525  144.0414  155.1337 C.ar    1  UNL1        0.0000
     29 C         138.4685  144.8231  154.5065 C.ar    1  UNL1        0.0000
     30 C         139.2381  144.2416  153.3577 C.ar    1  UNL1        0.0000
     31 C         138.8916  142.8785  152.8363 C.ar    1  UNL1        0.0000
     32 C         137.7756  142.0969  153.4635 C.ar    1  UNL1        0.0000
     33 C         141.7587  140.4693  158.5214 C.3     1  UNL1        0.0991
     34 C         142.6630  141.6155  162.7780 C.3     1  UNL1        0.0613
     35 C         143.2523  142.4055  161.6472 C.3     1  UNL1        0.0249
     36 C         142.9508  142.0234  160.2283 C.3     1  UNL1        0.0728
     37 N         142.0601  140.8513  159.9403 N.3     1  UNL1       -0.2689
     38 C         141.4709  140.0614  161.0711 C.3     1  UNL1        0.0728
     39 C         141.7723  140.4434  162.4899 C.3     1  UNL1        0.0249
     40 C         142.7705  142.2978  166.5974 C.ar    1  UNL1        0.1633
     41 N         144.0860  142.8730  166.1631 N.ar    1  UNL1       -0.1293
     42 N         144.2058  142.6874  164.6795 N.ar    1  UNL1       -0.1336
     43 C         142.9644  141.9975  164.1968 C.ar    1  UNL1        0.1396
     44 N         142.0774  141.7567  165.3822 N.ar    1  UNL1       -0.3246
     45 H         141.1951  141.3202  165.3655 H       1  UNL1        0.1686
     46 O         140.6530  142.1817  172.2102 O.co2   1  UNL1       -0.6187
     47 N         141.1823  142.2107  170.8070 N.ar    1  UNL1       -0.1519
     48 C         142.6413  142.4578  170.5608 C.ar    1  UNL1        0.3019
     49 C         143.1706  142.4869  169.1575 C.ar    1  UNL1        0.0802
     50 C         142.2411  142.2688  168.0006 C.ar    1  UNL1        0.0480
     51 C         140.7823  142.0216  168.2469 C.ar    1  UNL1        0.0802
     52 C         140.2529  141.9926  169.6501 C.ar    1  UNL1        0.3019
@<TRIPOS>UNITY_ATOM_ATTR
46 1
charge -1
47 1
charge 1
@<TRIPOS>BOND
     1    46    47    1
     2    47    48   ar
     3    48    49   ar
     4    49    50   ar
     5    50    40    1
     6    40    41   ar
     7    41    42   ar
     8    42    43   ar
     9    43    34    1
    10    34    35    1
    11    35    36    1
    12    36    37    1
    13    37    33    1
    14    33     1    1
    15     1     2   ar
    16     2     3   ar
    17     3     4   ar
    18     4     7    1
    19     7     8   ar
    20     8     9   ar
    21     9    10   ar
    22    10    11   ar
    23    11    17    1
    24    17    18    1
    25    18    19    1
    26    19    20    1
    27    20    23    1
    28    23    24    1
    29    24    25    1
    30    20    21    1
    31    21    22    1
    32    11    12   ar
    33    12    13   ar
    34    13    14   ar
    35    14    15   ar
    36    15    16   ar
    37    16    27    1
    38    27    28   ar
    39    28    29   ar
    40    29    30   ar
    41    30    31   ar
    42    31    32   ar
    43     4     5   ar
    44     5     6   ar
    45    37    38    1
    46    38    39    1
    47    43    44   ar
    48    50    51   ar
    49    51    52   ar
    50    52    47   ar
    51    44    40   ar
    52    39    34    1
    53     6     1   ar
    54    16     7   ar
    55    32    27   ar
    56    14     9   ar
    57    22    17    1
    58    25    26    1
    59    44    45    1
@<TRIPOS>MOLECULE
*****
 52 59 0 0 0
SMALL
GASTEIGER

@<TRIPOS>ATOM
      1 C         142.6850  140.2525  155.7091 C.ar    1  UNL1       -0.0061
      2 C         141.3833  139.9481  156.3893 C.ar    1  UNL1       -0.0029
      3 C         140.9489  140.7585  157.5744 C.ar    1  UNL1        0.0012
      4 C         141.8162  141.8734  158.0792 C.ar    1  UNL1        0.0177
      5 C         143.1180  142.1777  157.3990 C.ar    1  UNL1        0.0012
      6 C         143.5524  141.3673  156.2139 C.ar    1  UNL1       -0.0029
      7 C         141.3818  142.6838  159.2644 C.ar    1  UNL1        0.0829
      8 N         141.6556  142.1879  160.6532 N.ar    1  UNL1       -0.2264
      9 C         141.2212  142.9984  161.8383 C.ar    1  UNL1        0.1666
     10 N         141.4950  142.5024  163.2272 N.ar    1  UNL1       -0.1945
     11 C         141.0606  143.3129  164.4122 C.ar    1  UNL1        0.2216
     12 N         140.3522  144.6193  164.2084 N.ar    1  UNL1       -0.2120
     13 C         140.0784  145.1152  162.8195 C.ar    1  UNL1        0.1048
     14 C         140.5128  144.3048  161.6345 C.ar    1  UNL1        0.0551
     15 C         140.2390  144.8007  160.2456 C.ar    1  UNL1        0.0061
     16 C         140.6734  143.9903  159.0605 C.ar    1  UNL1        0.0179
     17 N         141.3344  142.8169  165.8012 N.pl3   1  UNL1       -0.2753
     18 C         142.6785  142.2446  166.1418 C.3     1  UNL1        0.1109
     19 C         142.9524  141.7486  167.5306 C.3     1  UNL1        0.0940
     20 N         141.8822  141.8250  168.5790 N.3     1  UNL1       -0.2677
     21 C         140.5382  142.3974  168.2384 C.3     1  UNL1        0.0940
     22 C         140.2643  142.8933  166.8495 C.3     1  UNL1        0.1109
     23 C         142.1561  141.3291  169.9679 C.3     1  UNL1        0.1043
     24 C         141.9019  142.2213  171.1466 C.3     1  UNL1        0.1544
     25 O         140.5744  142.1828  171.8439 O.3     1  UNL1       -0.3805
     26 H         139.8845  142.5063  171.2437 H       1  UNL1        0.2105
     27 C         140.3996  144.4862  157.6716 C.ar    1  UNL1        0.0015
     28 C         139.2330  143.9459  156.8987 C.ar    1  UNL1        0.0000
     29 C         138.9591  144.4418  155.5098 C.ar    1  UNL1        0.0000
     30 C         139.8518  145.4780  154.8938 C.ar    1  UNL1        0.0000
     31 C         141.0183  146.0182  155.6667 C.ar    1  UNL1        0.0000
     32 C         141.2922  145.5223  157.0556 C.ar    1  UNL1        0.0000
     33 C         143.1195  139.4420  154.5240 C.3     1  UNL1        0.0991
     34 C         142.8642  134.9511  154.6536 C.3     1  UNL1        0.0613
     35 C         143.6800  135.6858  155.6758 C.3     1  UNL1        0.0249
     36 C         143.7651  137.1828  155.6325 C.3     1  UNL1        0.0728
     37 N         143.0344  137.9451  154.5672 N.3     1  UNL1       -0.2689
     38 C         142.2186  137.2104  153.5450 C.3     1  UNL1        0.0728
     39 C         142.1335  135.7135  153.5882 C.3     1  UNL1        0.0249
     40 C         141.9630  131.1808  154.4598 C.ar    1  UNL1        0.1633
     41 N         143.3333  131.1204  155.0669 N.ar    1  UNL1       -0.1293
     42 N         143.8377  132.5254  155.2134 N.ar    1  UNL1       -0.1336
     43 C         142.7791  133.4542  154.6969 C.ar    1  UNL1        0.1396
     44 N         141.6205  132.6232  154.2311 N.ar    1  UNL1       -0.3246
     45 H         140.7824  132.9645  153.8434 H       1  UNL1        0.1686
     46 O         138.4656  126.4786  153.1722 O.co2   1  UNL1       -0.6187
     47 N         139.3399  127.6541  153.4941 N.ar    1  UNL1       -0.1519
     48 C         139.6555  128.6669  152.4334 C.ar    1  UNL1        0.3019
     49 C         140.5298  129.8424  152.7554 C.ar    1  UNL1        0.0802
     50 C         141.0886  130.0053  154.1379 C.ar    1  UNL1        0.0480
     51 C         140.7731  128.9926  155.1985 C.ar    1  UNL1        0.0802
     52 C         139.8988  127.8170  154.8766 C.ar    1  UNL1        0.3019
@<TRIPOS>UNITY_ATOM_ATTR
46 1
charge -1
47 1
charge 1
@<TRIPOS>BOND
     1    46    47    1
     2    47    48   ar
     3    48    49   ar
     4    49    50   ar
     5    50    40    1
     6    40    41   ar
     7    41    42   ar
     8    42    43   ar
     9    43    34    1
    10    34    35    1
    11    35    36    1
    12    36    37    1
    13    37    33    1
    14    33     1    1
    15     1     2   ar
    16     2     3   ar
    17     3     4   ar
    18     4     7    1
    19     7     8   ar
    20     8     9   ar
    21     9    10   ar
    22    10    11   ar
    23    11    17    1
    24    17    18    1
    25    18    19    1
    26    19    20    1
    27    20    23    1
    28    23    24    1
    29    24    25    1
    30    20    21    1
    31    21    22    1
    32    11    12   ar
    33    12    13   ar
    34    13    14   ar
    35    14    15   ar
    36    15    16   ar
    37    16    27    1
    38    27    28   ar
    39    28    29   ar
    40    29    30   ar
    41    30    31   ar
    42    31    32   ar
    43     4     5   ar
    44     5     6   ar
    45    37    38    1
    46    38    39    1
    47    43    44   ar
    48    50    51   ar
    49    51    52   ar
    50    52    47   ar
    51    44    40   ar
    52    39    34    1
    53     6     1   ar
    54    16     7   ar
    55    32    27   ar
    56    14     9   ar
    57    22    17    1
    58    25    26    1
    59    44    45    1
@<TRIPOS>MOLECULE
*****
 52 59 0 0 0
SMALL
GASTEIGER

@<TRIPOS>ATOM
      1 C         141.9517  140.9674  160.9519 C.ar    1  UNL1       -0.0061
      2 C         142.9000  141.7111  161.8449 C.ar    1  UNL1       -0.0029
      3 C         142.7422  141.6361  163.3347 C.ar    1  UNL1        0.0012
      4 C         141.6361  140.8173  163.9314 C.ar    1  UNL1        0.0177
      5 C         140.6878  140.0735  163.0384 C.ar    1  UNL1        0.0012
      6 C         140.8456  140.1486  161.5487 C.ar    1  UNL1       -0.0029
      7 C         141.4783  140.7423  165.4213 C.ar    1  UNL1        0.0829
      8 N         142.3566  139.8285  166.2234 N.ar    1  UNL1       -0.2264
      9 C         142.1989  139.7535  167.7133 C.ar    1  UNL1        0.1666
     10 N         143.0772  138.8397  168.5154 N.ar    1  UNL1       -0.1945
     11 C         142.9194  138.7647  170.0052 C.ar    1  UNL1        0.2216
     12 N         141.8833  139.6036  170.6928 N.ar    1  UNL1       -0.2120
     13 C         141.0050  140.5174  169.8906 C.ar    1  UNL1        0.1048
     14 C         141.1628  140.5924  168.4009 C.ar    1  UNL1        0.0551
     15 C         140.2845  141.5062  167.5987 C.ar    1  UNL1        0.0061
     16 C         140.4423  141.5812  166.1089 C.ar    1  UNL1        0.0179
     17 N         143.7977  137.8508  170.8074 N.pl3   1  UNL1       -0.2753
     18 C         144.7552  138.4213  171.8112 C.3     1  UNL1        0.1109
     19 C         145.6335  137.5075  172.6134 C.3     1  UNL1        0.0940
     20 N         145.5543  136.0232  172.4118 N.3     1  UNL1       -0.2677
     21 C         144.5968  135.4527  171.4080 C.3     1  UNL1        0.0940
     22 C         143.7184  136.3666  170.6057 C.3     1  UNL1        0.1109
     23 C         146.4326  135.1094  173.2140 C.3     1  UNL1        0.1043
     24 C         146.1276  133.6422  173.2790 C.3     1  UNL1        0.1544
     25 O         146.5982  132.8294  174.4486 O.3     1  UNL1       -0.3805
     26 H         147.5676  132.7939  174.4484 H       1  UNL1        0.2105
     27 C         139.5639  142.4951  165.3067 C.ar    1  UNL1        0.0015
     28 C         139.9739  143.9198  165.0785 C.ar    1  UNL1        0.0000
     29 C         139.0956  144.8336  164.2763 C.ar    1  UNL1        0.0000
     30 C         137.8075  144.3228  163.7023 C.ar    1  UNL1        0.0000
     31 C         137.3975  142.8980  163.9305 C.ar    1  UNL1        0.0000
     32 C         138.2758  141.9842  164.7327 C.ar    1  UNL1        0.0000
     33 C         142.1095  141.0424  159.4621 C.3     1  UNL1        0.0991
     34 C         141.9851  137.2816  156.9941 C.3     1  UNL1        0.0613
     35 C         141.2117  138.4906  156.5582 C.3     1  UNL1        0.0249
     36 C         141.2531  139.7442  157.3809 C.3     1  UNL1        0.0728
     37 N         142.0680  139.7888  158.6394 N.3     1  UNL1       -0.2689
     38 C         142.8415  138.5797  159.0753 C.3     1  UNL1        0.0728
     39 C         142.8001  137.3262  158.2527 C.3     1  UNL1        0.0249
     40 C         142.5039  133.8563  155.2438 C.ar    1  UNL1        0.1633
     41 N         141.2560  134.3414  154.5674 N.ar    1  UNL1       -0.1293
     42 N         140.9098  135.6836  155.1407 N.ar    1  UNL1       -0.1336
     43 C         141.9437  136.0280  156.1715 C.ar    1  UNL1        0.1396
     44 N         142.9289  134.8987  156.2352 N.ar    1  UNL1       -0.3246
     45 H         143.7162  134.8501  156.8243 H       1  UNL1        0.1686
     46 O         145.3037  128.6589  154.1721 O.co2   1  UNL1       -0.6187
     47 N         144.6038  129.9583  154.4400 N.ar    1  UNL1       -0.1519
     48 C         143.6411  130.5133  153.4324 C.ar    1  UNL1        0.3019
     49 C         142.9412  131.8126  153.7004 C.ar    1  UNL1        0.0802
     50 C         143.2038  132.5570  154.9759 C.ar    1  UNL1        0.0480
     51 C         144.1665  132.0020  155.9835 C.ar    1  UNL1        0.0802
     52 C         144.8665  130.7026  155.7155 C.ar    1  UNL1        0.3019
@<TRIPOS>UNITY_ATOM_ATTR
46 1
charge -1
47 1
charge 1
@<TRIPOS>BOND
     1    46    47    1
     2    47    48   ar
     3    48    49   ar
     4    49    50   ar
     5    50    40    1
     6    40    41   ar
     7    41    42   ar
     8    42    43   ar
     9    43    34    1
    10    34    35    1
    11    35    36    1
    12    36    37    1
    13    37    33    1
    14    33     1    1
    15     1     2   ar
    16     2     3   ar
    17     3     4   ar
    18     4     7    1
    19     7     8   ar
    20     8     9   ar
    21     9    10   ar
    22    10    11   ar
    23    11    17    1
    24    17    18    1
    25    18    19    1
    26    19    20    1
    27    20    23    1
    28    23    24    1
    29    24    25    1
    30    20    21    1
    31    21    22    1
    32    11    12   ar
    33    12    13   ar
    34    13    14   ar
    35    14    15   ar
    36    15    16   ar
    37    16    27    1
    38    27    28   ar
    39    28    29   ar
    40    29    30   ar
    41    30    31   ar
    42    31    32   ar
    43     4     5   ar
    44     5     6   ar
    45    37    38    1
    46    38    39    1
    47    43    44   ar
    48    50    51   ar
    49    51    52   ar
    50    52    47   ar
    51    44    40   ar
    52    39    34    1
    53     6     1   ar
    54    16     7   ar
    55    32    27   ar
    56    14     9   ar
    57    22    17    1
    58    25    26    1
    59    44    45    1
@<TRIPOS>MOLECULE
*****
 52 59 0 0 0
SMALL
GASTEIGER

@<TRIPOS>ATOM
      1 C         142.5436  140.3898  156.0752 C.ar    1  UNL1       -0.0061
      2 C         141.2649  139.9605  156.7314 C.ar    1  UNL1       -0.0029
      3 C         140.7643  140.6861  157.9450 C.ar    1  UNL1        0.0012
      4 C         141.5424  141.8409  158.5025 C.ar    1  UNL1        0.0177
      5 C         142.8211  142.2702  157.8464 C.ar    1  UNL1        0.0012
      6 C         143.3217  141.5447  156.6328 C.ar    1  UNL1       -0.0029
      7 C         141.0418  142.5664  159.7162 C.ar    1  UNL1        0.0829
      8 N         141.1108  141.9108  161.0636 N.ar    1  UNL1       -0.2264
      9 C         140.6101  142.6363  162.2773 C.ar    1  UNL1        0.1666
     10 N         140.6791  141.9807  163.6246 N.ar    1  UNL1       -0.1945
     11 C         140.1785  142.7062  164.8382 C.ar    1  UNL1        0.2216
     12 N         139.6089  144.0874  164.7045 N.ar    1  UNL1       -0.2120
     13 C         139.5399  144.7431  163.3572 C.ar    1  UNL1        0.1048
     14 C         140.0405  144.0175  162.1436 C.ar    1  UNL1        0.0551
     15 C         139.9716  144.6732  160.7962 C.ar    1  UNL1        0.0061
     16 C         140.4722  143.9476  159.5825 C.ar    1  UNL1        0.0179
     17 N         140.2474  142.0506  166.1856 N.pl3   1  UNL1       -0.2753
     18 C         140.4303  142.8862  167.4178 C.3     1  UNL1        0.1109
     19 C         140.4992  142.2307  168.7652 C.3     1  UNL1        0.0940
     20 N         140.3853  140.7394  168.8804 N.3     1  UNL1       -0.2677
     21 C         140.2025  139.9037  167.6482 C.3     1  UNL1        0.0940
     22 C         140.1335  140.5594  166.3008 C.3     1  UNL1        0.1109
     23 C         140.4543  140.0838  170.2278 C.3     1  UNL1        0.1043
     24 C         141.2640  140.7084  171.3252 C.3     1  UNL1        0.1544
     25 O         142.7081  140.3397  171.4947 O.3     1  UNL1       -0.3805
     26 H         142.7754  139.4073  171.7537 H       1  UNL1        0.2105
     27 C         140.4032  144.6033  158.2351 C.ar    1  UNL1        0.0015
     28 C         141.4592  145.5863  157.8245 C.ar    1  UNL1        0.0000
     29 C         141.3903  146.2419  156.4772 C.ar    1  UNL1        0.0000
     30 C         140.2654  145.9145  155.5405 C.ar    1  UNL1        0.0000
     31 C         139.2095  144.9315  155.9511 C.ar    1  UNL1        0.0000
     32 C         139.2784  144.2759  157.2984 C.ar    1  UNL1        0.0000
     33 C         143.0442  139.6643  154.8615 C.3     1  UNL1        0.0991
     34 C         142.9832  135.1663  154.7444 C.3     1  UNL1        0.0613
     35 C         144.1032  135.8833  155.4383 C.3     1  UNL1        0.0249
     36 C         144.1235  137.3827  155.4773 C.3     1  UNL1        0.0728
     37 N         143.0239  138.1650  154.8225 N.3     1  UNL1       -0.2689
     38 C         141.9039  137.4479  154.1286 C.3     1  UNL1        0.0728
     39 C         141.8835  135.9486  154.0895 C.3     1  UNL1        0.0249
     40 C         143.3343  131.3378  155.2775 C.ar    1  UNL1        0.1633
     41 N         142.5287  131.3816  154.0129 N.ar    1  UNL1       -0.1293
     42 N         142.2992  132.8211  153.6593 N.ar    1  UNL1       -0.1336
     43 C         142.9628  133.6669  154.7053 C.ar    1  UNL1        0.1396
     44 N         143.6025  132.7502  155.7054 N.ar    1  UNL1       -0.3246
     45 H         144.1095  133.0269  156.5027 H       1  UNL1        0.1686
     46 O         145.1624  126.3826  158.1245 O.co2   1  UNL1       -0.6187
     47 N         144.7053  127.6214  157.4128 N.ar    1  UNL1       -0.1519
     48 C         145.3837  128.0520  156.1461 C.ar    1  UNL1        0.3019
     49 C         144.9267  129.2908  155.4344 C.ar    1  UNL1        0.0802
     50 C         143.7913  130.0990  155.9893 C.ar    1  UNL1        0.0480
     51 C         143.1130  129.6683  157.2559 C.ar    1  UNL1        0.0802
     52 C         143.5700  128.4295  157.9676 C.ar    1  UNL1        0.3019
@<TRIPOS>UNITY_ATOM_ATTR
46 1
charge -1
47 1
charge 1
@<TRIPOS>BOND
     1    46    47    1
     2    47    48   ar
     3    48    49   ar
     4    49    50   ar
     5    50    40    1
     6    40    41   ar
     7    41    42   ar
     8    42    43   ar
     9    43    34    1
    10    34    35    1
    11    35    36    1
    12    36    37    1
    13    37    33    1
    14    33     1    1
    15     1     2   ar
    16     2     3   ar
    17     3     4   ar
    18     4     7    1
    19     7     8   ar
    20     8     9   ar
    21     9    10   ar
    22    10    11   ar
    23    11    17    1
    24    17    18    1
    25    18    19    1
    26    19    20    1
    27    20    23    1
    28    23    24    1
    29    24    25    1
    30    20    21    1
    31    21    22    1
    32    11    12   ar
    33    12    13   ar
    34    13    14   ar
    35    14    15   ar
    36    15    16   ar
    37    16    27    1
    38    27    28   ar
    39    28    29   ar
    40    29    30   ar
    41    30    31   ar
    42    31    32   ar
    43     4     5   ar
    44     5     6   ar
    45    37    38    1
    46    38    39    1
    47    43    44   ar
    48    50    51   ar
    49    51    52   ar
    50    52    47   ar
    51    44    40   ar
    52    39    34    1
    53     6     1   ar
    54    16     7   ar
    55    32    27   ar
    56    14     9   ar
    57    22    17    1
    58    25    26    1
    59    44    45    1
