@<TRIPOS>MOLECULE
*****
 25 26 0 0 0
SMALL
GASTEIGER

@<TRIPOS>ATOM
      1 C         139.0412  139.8051  165.2772 C.ar    1  UNL1        0.1327
      2 N         138.0823  138.7217  165.6729 N.ar    1  UNL1       -0.1993
      3 C         137.8174  138.4476  167.1237 C.ar    1  UNL1        0.2148
      4 N         136.8584  137.3641  167.5193 N.pl3   1  UNL1       -0.3274
      5 N         138.5116  139.2568  168.1787 N.ar    1  UNL1       -0.2138
      6 C         139.4706  140.3403  167.7831 C.ar    1  UNL1        0.0899
      7 C         140.1647  141.1495  168.8382 C.ar    1  UNL1        0.0562
      8 C         141.1237  142.2329  168.4425 C.ar    1  UNL1        0.1402
      9 C         141.3885  142.5070  166.9917 C.ar    1  UNL1        0.0371
     10 C         140.6944  141.6978  165.9367 C.ar    1  UNL1        0.0074
     11 C         139.7354  140.6144  166.3323 C.ar    1  UNL1        0.0494
     12 H         136.4028  136.8330  166.8268 H       1  UNL1        0.1452
     13 H         136.6846  137.1842  168.4715 H       1  UNL1        0.1452
     14 N         139.3061  140.0792  163.8265 N.pl3   1  UNL1       -0.3195
     15 H         140.2176  139.9859  163.4663 H       1  UNL1        0.1481
     16 C         138.1822  140.4955  162.9245 C.3     1  UNL1        0.0729
     17 C         137.3670  141.7108  163.2538 C.3     1  UNL1        0.0196
     18 C         137.8559  143.8894  164.5823 C.3     1  UNL1        0.0001
     19 C         138.0279  143.0541  163.3483 C.3     1  UNL1        0.0017
     20 C         137.8735  139.6963  161.6931 C.3     1  UNL1        0.0512
     21 C         137.7670  138.2024  161.7757 C.3     1  UNL1        0.1389
     22 O         138.6015  137.4446  162.7652 O.3     1  UNL1       -0.3819
     23 H         139.5386  137.5278  162.5287 H       1  UNL1        0.2104
     24 O         141.8179  143.0422  169.4976 O.3     1  UNL1       -0.4714
     25 C         143.1515  142.6017  170.0243 C.3     1  UNL1        0.2525
@<TRIPOS>BOND
     1    18    19    1
     2    19    17    1
     3    16    17    1
     4    16    20    1
     5    20    21    1
     6    21    22    1
     7    16    14    1
     8    14     1    1
     9     1     2   ar
    10     2     3   ar
    11     3     4    1
    12     3     5   ar
    13     5     6   ar
    14     6     7   ar
    15     7     8   ar
    16     8    24    1
    17    24    25    1
    18     8     9   ar
    19     9    10   ar
    20    10    11   ar
    21    11     1   ar
    22    11     6   ar
    23    22    23    1
    24    14    15    1
    25     4    12    1
    26     4    13    1
@<TRIPOS>MOLECULE
*****
 25 26 0 0 0
SMALL
GASTEIGER

@<TRIPOS>ATOM
      1 C         139.4702  143.1066  164.5833 C.ar    1  UNL1        0.1327
      2 N         138.6683  142.5838  163.4286 N.ar    1  UNL1       -0.1993
      3 C         138.0892  141.2011  163.4825 C.ar    1  UNL1        0.2148
      4 N         137.2873  140.6783  162.3276 N.pl3   1  UNL1       -0.3274
      5 N         138.3121  140.3413  164.6911 N.ar    1  UNL1       -0.2138
      6 C         139.1141  140.8641  165.8460 C.ar    1  UNL1        0.0899
      7 C         139.3369  140.0042  167.0546 C.ar    1  UNL1        0.0562
      8 C         140.1388  140.5270  168.2094 C.ar    1  UNL1        0.1402
      9 C         140.7179  141.9097  168.1555 C.ar    1  UNL1        0.0371
     10 C         140.4950  142.7696  166.9468 C.ar    1  UNL1        0.0074
     11 C         139.6931  142.2468  165.7921 C.ar    1  UNL1        0.0494
     12 H         137.1410  141.2427  161.5343 H       1  UNL1        0.1452
     13 H         136.9072  139.7708  162.3630 H       1  UNL1        0.1452
     14 N         140.0493  144.4893  164.5294 N.pl3   1  UNL1       -0.3195
     15 H         139.6707  145.2038  165.0911 H       1  UNL1        0.1481
     16 C         141.2051  144.7834  163.6198 C.3     1  UNL1        0.0729
     17 C         142.6109  144.6410  164.1233 C.3     1  UNL1        0.0196
     18 C         144.0084  143.0145  165.5902 C.3     1  UNL1        0.0001
     19 C         143.1873  143.2769  164.3626 C.3     1  UNL1        0.0017
     20 C         140.9553  145.2200  162.2066 C.3     1  UNL1        0.0512
     21 C         139.7094  145.9829  161.8665 C.3     1  UNL1        0.1389
     22 O         138.3631  145.3738  162.1241 O.3     1  UNL1       -0.3819
     23 H         138.2424  144.6015  161.5498 H       1  UNL1        0.2104
     24 O         140.3618  139.6672  169.4182 O.3     1  UNL1       -0.4714
     25 C         141.7496  139.4684  169.9516 C.3     1  UNL1        0.2525
@<TRIPOS>BOND
     1    18    19    1
     2    19    17    1
     3    16    17    1
     4    16    20    1
     5    20    21    1
     6    21    22    1
     7    16    14    1
     8    14     1    1
     9     1     2   ar
    10     2     3   ar
    11     3     4    1
    12     3     5   ar
    13     5     6   ar
    14     6     7   ar
    15     7     8   ar
    16     8    24    1
    17    24    25    1
    18     8     9   ar
    19     9    10   ar
    20    10    11   ar
    21    11     1   ar
    22    11     6   ar
    23    22    23    1
    24    14    15    1
    25     4    12    1
    26     4    13    1
@<TRIPOS>MOLECULE
*****
 25 26 0 0 0
SMALL
GASTEIGER

@<TRIPOS>ATOM
      1 C         139.8449  141.0450  163.7558 C.ar    1  UNL1        0.1327
      2 N         139.3610  140.0714  162.7225 N.ar    1  UNL1       -0.1993
      3 C         138.7341  138.7766  163.1473 C.ar    1  UNL1        0.2148
      4 N         138.2501  137.8030  162.1139 N.pl3   1  UNL1       -0.3274
      5 N         138.5911  138.4553  164.6055 N.ar    1  UNL1       -0.2138
      6 C         139.0751  139.4290  165.6389 C.ar    1  UNL1        0.0899
      7 C         138.9321  139.1077  167.0971 C.ar    1  UNL1        0.0562
      8 C         139.4161  140.0813  168.1305 C.ar    1  UNL1        0.1402
      9 C         140.0430  141.3761  167.7057 C.ar    1  UNL1        0.0371
     10 C         140.1859  141.6973  166.2475 C.ar    1  UNL1        0.0074
     11 C         139.7020  140.7238  165.2141 C.ar    1  UNL1        0.0494
     12 H         138.3439  138.0138  161.1568 H       1  UNL1        0.1452
     13 H         137.8386  136.9531  162.3927 H       1  UNL1        0.1452
     14 N         140.4718  142.3398  163.3310 N.pl3   1  UNL1       -0.3195
     15 H         141.4372  142.4845  163.4587 H       1  UNL1        0.1481
     16 C         139.6278  143.4140  162.7117 C.3     1  UNL1        0.0729
     17 C         138.1888  143.5599  163.1091 C.3     1  UNL1        0.0196
     18 C         138.7331  144.9088  165.2618 C.3     1  UNL1        0.0001
     19 C         137.8350  143.9744  164.5067 C.3     1  UNL1        0.0017
     20 C         140.2229  144.3426  161.6949 C.3     1  UNL1        0.0512
     21 C         140.1390  145.8268  161.8948 C.3     1  UNL1        0.1389
     22 O         138.9909  146.5980  161.3143 O.3     1  UNL1       -0.3819
     23 H         139.0373  146.5670  160.3459 H       1  UNL1        0.2104
     24 O         139.2732  139.7601  169.5888 O.3     1  UNL1       -0.4714
     25 C         140.3792  140.0997  170.5434 C.3     1  UNL1        0.2525
@<TRIPOS>BOND
     1    18    19    1
     2    19    17    1
     3    16    17    1
     4    16    20    1
     5    20    21    1
     6    21    22    1
     7    16    14    1
     8    14     1    1
     9     1     2   ar
    10     2     3   ar
    11     3     4    1
    12     3     5   ar
    13     5     6   ar
    14     6     7   ar
    15     7     8   ar
    16     8    24    1
    17    24    25    1
    18     8     9   ar
    19     9    10   ar
    20    10    11   ar
    21    11     1   ar
    22    11     6   ar
    23    22    23    1
    24    14    15    1
    25     4    12    1
    26     4    13    1
@<TRIPOS>MOLECULE
*****
 25 26 0 0 0
SMALL
GASTEIGER

@<TRIPOS>ATOM
      1 C         140.7359  141.3082  166.4808 C.ar    1  UNL1        0.1327
      2 N         139.9647  140.0572  166.7811 N.ar    1  UNL1       -0.1993
      3 C         138.6829  139.7739  166.0553 C.ar    1  UNL1        0.2148
      4 N         137.9117  138.5228  166.3556 N.pl3   1  UNL1       -0.3274
      5 N         138.1723  140.7416  165.0292 N.ar    1  UNL1       -0.2138
      6 C         138.9435  141.9927  164.7289 C.ar    1  UNL1        0.0899
      7 C         138.4330  142.9604  163.7029 C.ar    1  UNL1        0.0562
      8 C         139.2042  144.2114  163.4027 C.ar    1  UNL1        0.1402
      9 C         140.4859  144.4947  164.1285 C.ar    1  UNL1        0.0371
     10 C         140.9965  143.5270  165.1545 C.ar    1  UNL1        0.0074
     11 C         140.2253  142.2760  165.4547 C.ar    1  UNL1        0.0494
     12 H         138.2468  137.8876  167.0290 H       1  UNL1        0.1452
     13 H         137.0704  138.3368  165.8792 H       1  UNL1        0.1452
     14 N         142.0177  141.5914  167.2066 N.pl3   1  UNL1       -0.3195
     15 H         142.8809  141.4458  166.7563 H       1  UNL1        0.1481
     16 C         141.9842  142.0967  168.6185 C.3     1  UNL1        0.0729
     17 C         140.8647  142.9870  169.0702 C.3     1  UNL1        0.0196
     18 C         139.3143  141.1354  170.0282 C.3     1  UNL1        0.0001
     19 C         139.9049  142.5111  170.1202 C.3     1  UNL1        0.0017
     20 C         143.0703  141.7115  169.5789 C.3     1  UNL1        0.0512
     21 C         142.9248  140.4784  170.4204 C.3     1  UNL1        0.1389
     22 O         142.3939  140.5836  171.8194 O.3     1  UNL1       -0.3819
     23 H         143.0216  141.0806  172.3669 H       1  UNL1        0.2104
     24 O         138.6936  145.1792  162.3766 O.3     1  UNL1       -0.4714
     25 C         139.6234  146.1864  161.7676 C.3     1  UNL1        0.2525
@<TRIPOS>BOND
     1    18    19    1
     2    19    17    1
     3    16    17    1
     4    16    20    1
     5    20    21    1
     6    21    22    1
     7    16    14    1
     8    14     1    1
     9     1     2   ar
    10     2     3   ar
    11     3     4    1
    12     3     5   ar
    13     5     6   ar
    14     6     7   ar
    15     7     8   ar
    16     8    24    1
    17    24    25    1
    18     8     9   ar
    19     9    10   ar
    20    10    11   ar
    21    11     1   ar
    22    11     6   ar
    23    22    23    1
    24    14    15    1
    25     4    12    1
    26     4    13    1
@<TRIPOS>MOLECULE
*****
 25 26 0 0 0
SMALL
GASTEIGER

@<TRIPOS>ATOM
      1 C         139.5719  140.5283  167.7396 C.ar    1  UNL1        0.1327
      2 N         138.7469  139.3409  168.1390 N.ar    1  UNL1       -0.1993
      3 C         137.8727  138.6607  167.1275 C.ar    1  UNL1        0.2148
      4 N         137.0477  137.4733  167.5269 N.pl3   1  UNL1       -0.3274
      5 N         137.8235  139.1678  165.7167 N.ar    1  UNL1       -0.2138
      6 C         138.6485  140.3552  165.3173 C.ar    1  UNL1        0.0899
      7 C         138.5992  140.8624  163.9066 C.ar    1  UNL1        0.0562
      8 C         139.4242  142.0497  163.5072 C.ar    1  UNL1        0.1402
      9 C         140.2984  142.7300  164.5187 C.ar    1  UNL1        0.0371
     10 C         140.3477  142.2229  165.9295 C.ar    1  UNL1        0.0074
     11 C         139.5227  141.0355  166.3288 C.ar    1  UNL1        0.0494
     12 H         137.0800  137.1404  168.4529 H       1  UNL1        0.1452
     13 H         136.4739  137.0268  166.8631 H       1  UNL1        0.1452
     14 N         140.4461  141.2085  168.7511 N.pl3   1  UNL1       -0.3195
     15 H         140.0432  141.7746  169.4486 H       1  UNL1        0.1481
     16 C         141.9340  141.0263  168.6999 C.3     1  UNL1        0.0729
     17 C         142.5184  139.6472  168.6189 C.3     1  UNL1        0.0196
     18 C         143.1212  139.9274  166.1072 C.3     1  UNL1        0.0001
     19 C         142.8294  139.0417  167.2821 C.3     1  UNL1        0.0017
     20 C         142.8377  142.2232  168.7296 C.3     1  UNL1        0.0512
     21 C         143.3704  142.7284  170.0376 C.3     1  UNL1        0.1389
     22 O         144.8510  142.7973  170.2680 O.3     1  UNL1       -0.3819
     23 H         145.2187  141.8998  170.2788 H       1  UNL1        0.2104
     24 O         139.3750  142.5569  162.0964 O.3     1  UNL1       -0.4714
     25 C         138.0609  142.6544  161.3799 C.3     1  UNL1        0.2525
@<TRIPOS>BOND
     1    18    19    1
     2    19    17    1
     3    16    17    1
     4    16    20    1
     5    20    21    1
     6    21    22    1
     7    16    14    1
     8    14     1    1
     9     1     2   ar
    10     2     3   ar
    11     3     4    1
    12     3     5   ar
    13     5     6   ar
    14     6     7   ar
    15     7     8   ar
    16     8    24    1
    17    24    25    1
    18     8     9   ar
    19     9    10   ar
    20    10    11   ar
    21    11     1   ar
    22    11     6   ar
    23    22    23    1
    24    14    15    1
    25     4    12    1
    26     4    13    1
@<TRIPOS>MOLECULE
*****
 25 26 0 0 0
SMALL
GASTEIGER

@<TRIPOS>ATOM
      1 C         138.1928  141.7150  163.8659 C.ar    1  UNL1        0.1327
      2 N         138.6492  143.0583  163.3791 N.ar    1  UNL1       -0.1993
      3 C         139.6089  143.8673  164.2004 C.ar    1  UNL1        0.2148
      4 N         140.0653  145.2107  163.7135 N.pl3   1  UNL1       -0.3274
      5 N         140.1121  143.3330  165.5086 N.ar    1  UNL1       -0.2138
      6 C         139.6556  141.9896  165.9954 C.ar    1  UNL1        0.0899
      7 C         140.1588  141.4553  167.3036 C.ar    1  UNL1        0.0562
      8 C         139.7024  140.1119  167.7904 C.ar    1  UNL1        0.1402
      9 C         138.7427  139.3029  166.9691 C.ar    1  UNL1        0.0371
     10 C         138.2395  139.8372  165.6609 C.ar    1  UNL1        0.0074
     11 C         138.6960  141.1806  165.1741 C.ar    1  UNL1        0.0494
     12 H         139.7351  145.5614  162.8550 H       1  UNL1        0.1452
     13 H         140.6952  145.7417  164.2526 H       1  UNL1        0.1452
     14 N         137.2331  140.9060  163.0446 N.pl3   1  UNL1       -0.3195
     15 H         136.2634  141.0000  163.1861 H       1  UNL1        0.1481
     16 C         137.7509  139.9537  162.0078 C.3     1  UNL1        0.0729
     17 C         138.1773  138.5716  162.4051 C.3     1  UNL1        0.0196
     18 C         140.3215  137.5613  163.4689 C.3     1  UNL1        0.0001
     19 C         139.6180  138.1695  162.2920 C.3     1  UNL1        0.0017
     20 C         137.8424  140.3836  160.5736 C.3     1  UNL1        0.0512
     21 C         138.6024  141.6245  160.2096 C.3     1  UNL1        0.1389
     22 O         138.0829  142.9700  160.6215 O.3     1  UNL1       -0.3819
     23 H         137.2486  143.1495  160.1603 H       1  UNL1        0.2104
     24 O         140.2056  139.5776  169.0986 O.3     1  UNL1       -0.4714
     25 C         140.0482  140.3888  170.3504 C.3     1  UNL1        0.2525
@<TRIPOS>BOND
     1    18    19    1
     2    19    17    1
     3    16    17    1
     4    16    20    1
     5    20    21    1
     6    21    22    1
     7    16    14    1
     8    14     1    1
     9     1     2   ar
    10     2     3   ar
    11     3     4    1
    12     3     5   ar
    13     5     6   ar
    14     6     7   ar
    15     7     8   ar
    16     8    24    1
    17    24    25    1
    18     8     9   ar
    19     9    10   ar
    20    10    11   ar
    21    11     1   ar
    22    11     6   ar
    23    22    23    1
    24    14    15    1
    25     4    12    1
    26     4    13    1
@<TRIPOS>MOLECULE
*****
 25 26 0 0 0
SMALL
GASTEIGER

@<TRIPOS>ATOM
      1 C         138.8688  140.7494  164.9006 C.ar    1  UNL1        0.1327
      2 N         138.9158  141.8110  163.8420 N.ar    1  UNL1       -0.1993
      3 C         139.6022  143.1158  164.1182 C.ar    1  UNL1        0.2148
      4 N         139.6491  144.1775  163.0595 N.pl3   1  UNL1       -0.3274
      5 N         140.2417  143.3590  165.4530 N.ar    1  UNL1       -0.2138
      6 C         140.1948  142.2973  166.5117 C.ar    1  UNL1        0.0899
      7 C         140.8343  142.5405  167.8466 C.ar    1  UNL1        0.0562
      8 C         140.7874  141.4789  168.9052 C.ar    1  UNL1        0.1402
      9 C         140.1009  140.1741  168.6290 C.ar    1  UNL1        0.0371
     10 C         139.4615  139.9309  167.2941 C.ar    1  UNL1        0.0074
     11 C         139.5084  140.9925  166.2355 C.ar    1  UNL1        0.0494
     12 H         139.2293  144.0179  162.1834 H       1  UNL1        0.1452
     13 H         140.0996  145.0339  163.2408 H       1  UNL1        0.1452
     14 N         138.1824  139.4446  164.6243 N.pl3   1  UNL1       -0.3195
     15 H         137.2411  139.3190  164.8838 H       1  UNL1        0.1481
     16 C         138.9303  138.3311  163.9529 C.3     1  UNL1        0.0729
     17 C         139.7391  137.3698  164.7724 C.3     1  UNL1        0.0196
     18 C         142.1440  138.2421  165.2258 C.3     1  UNL1        0.0001
     19 C         141.2205  137.2653  164.5605 C.3     1  UNL1        0.0017
     20 C         138.8693  138.1789  162.4618 C.3     1  UNL1        0.0512
     21 C         137.6657  138.6607  161.7074 C.3     1  UNL1        0.1389
     22 O         137.2423  140.0961  161.8084 O.3     1  UNL1       -0.3819
     23 H         136.9520  140.2846  162.7146 H       1  UNL1        0.2104
     24 O         141.4269  141.7220  170.2401 O.3     1  UNL1       -0.4714
     25 C         142.4520  142.8062  170.3943 C.3     1  UNL1        0.2525
@<TRIPOS>BOND
     1    18    19    1
     2    19    17    1
     3    16    17    1
     4    16    20    1
     5    20    21    1
     6    21    22    1
     7    16    14    1
     8    14     1    1
     9     1     2   ar
    10     2     3   ar
    11     3     4    1
    12     3     5   ar
    13     5     6   ar
    14     6     7   ar
    15     7     8   ar
    16     8    24    1
    17    24    25    1
    18     8     9   ar
    19     9    10   ar
    20    10    11   ar
    21    11     1   ar
    22    11     6   ar
    23    22    23    1
    24    14    15    1
    25     4    12    1
    26     4    13    1
@<TRIPOS>MOLECULE
*****
 25 26 0 0 0
SMALL
GASTEIGER

@<TRIPOS>ATOM
      1 C         139.2203  139.5655  165.3795 C.ar    1  UNL1        0.1327
      2 N         138.1549  138.5995  165.8057 N.ar    1  UNL1       -0.1993
      3 C         137.7890  138.4781  167.2553 C.ar    1  UNL1        0.2148
      4 N         136.7236  137.5120  167.6815 N.pl3   1  UNL1       -0.3274
      5 N         138.4885  139.3227  168.2787 N.ar    1  UNL1       -0.2138
      6 C         139.5539  140.2888  167.8525 C.ar    1  UNL1        0.0899
      7 C         140.2534  141.1334  168.8759 C.ar    1  UNL1        0.0562
      8 C         141.3187  142.0994  168.4496 C.ar    1  UNL1        0.1402
      9 C         141.6847  142.2208  167.0000 C.ar    1  UNL1        0.0371
     10 C         140.9852  141.3762  165.9766 C.ar    1  UNL1        0.0074
     11 C         139.9198  140.4102  166.4029 C.ar    1  UNL1        0.0494
     12 H         136.2645  136.9576  167.0098 H       1  UNL1        0.1452
     13 H         136.4834  137.4323  168.6329 H       1  UNL1        0.1452
     14 N         139.5862  139.6869  163.9299 N.pl3   1  UNL1       -0.3195
     15 H         139.6656  140.5762  163.5150 H       1  UNL1        0.1481
     16 C         139.8312  138.4534  163.1123 C.3     1  UNL1        0.0729
     17 C         141.1727  137.7833  163.1493 C.3     1  UNL1        0.0196
     18 C         142.6443  138.1438  165.2599 C.3     1  UNL1        0.0001
     19 C         142.3291  138.4567  163.8272 C.3     1  UNL1        0.0017
     20 C         138.7347  137.8900  162.2577 C.3     1  UNL1        0.0512
     21 C         137.8145  138.8120  161.5142 C.3     1  UNL1        0.1389
     22 O         137.2723  140.0362  162.1904 O.3     1  UNL1       -0.3819
     23 H         136.6855  139.7717  162.9160 H       1  UNL1        0.2104
     24 O         142.0183  142.9441  169.4730 O.3     1  UNL1       -0.4714
     25 C         142.1933  142.4348  170.8730 C.3     1  UNL1        0.2525
@<TRIPOS>BOND
     1    18    19    1
     2    19    17    1
     3    16    17    1
     4    16    20    1
     5    20    21    1
     6    21    22    1
     7    16    14    1
     8    14     1    1
     9     1     2   ar
    10     2     3   ar
    11     3     4    1
    12     3     5   ar
    13     5     6   ar
    14     6     7   ar
    15     7     8   ar
    16     8    24    1
    17    24    25    1
    18     8     9   ar
    19     9    10   ar
    20    10    11   ar
    21    11     1   ar
    22    11     6   ar
    23    22    23    1
    24    14    15    1
    25     4    12    1
    26     4    13    1
@<TRIPOS>MOLECULE
*****
 25 26 0 0 0
SMALL
GASTEIGER

@<TRIPOS>ATOM
      1 C         142.3636  139.1076  164.9645 C.ar    1  UNL1        0.1327
      2 N         143.2940  139.3898  163.8224 N.ar    1  UNL1       -0.1993
      3 C         144.1410  140.6277  163.8332 C.ar    1  UNL1        0.2148
      4 N         145.0715  140.9098  162.6909 N.pl3   1  UNL1       -0.3274
      5 N         144.0576  141.5834  164.9862 N.ar    1  UNL1       -0.2138
      6 C         143.1272  141.3013  166.1285 C.ar    1  UNL1        0.0899
      7 C         143.0438  142.2571  167.2815 C.ar    1  UNL1        0.0562
      8 C         142.1133  141.9750  168.4237 C.ar    1  UNL1        0.1402
      9 C         141.2663  140.7370  168.4129 C.ar    1  UNL1        0.0371
     10 C         141.3497  139.7813  167.2598 C.ar    1  UNL1        0.0074
     11 C         142.2801  140.0634  166.1176 C.ar    1  UNL1        0.0494
     12 H         145.1263  140.2825  161.9341 H       1  UNL1        0.1452
     13 H         145.6275  141.7223  162.6980 H       1  UNL1        0.1452
     14 N         141.5166  137.8697  164.9537 N.pl3   1  UNL1       -0.3195
     15 H         141.8699  137.0283  165.3230 H       1  UNL1        0.1481
     16 C         140.1313  137.9138  164.3802 C.3     1  UNL1        0.0729
     17 C         138.9739  137.3835  165.1735 C.3     1  UNL1        0.0196
     18 C         138.0434  139.7283  165.7947 C.3     1  UNL1        0.0001
     19 C         138.2468  138.2807  166.1308 C.3     1  UNL1        0.0017
     20 C         139.9032  138.4883  163.0135 C.3     1  UNL1        0.0512
     21 C         140.7054  137.9912  161.8476 C.3     1  UNL1        0.1389
     22 O         141.8562  137.0559  162.0732 O.3     1  UNL1       -0.3819
     23 H         142.5540  137.5150  162.5664 H       1  UNL1        0.2104
     24 O         142.0299  142.9308  169.5768 O.3     1  UNL1       -0.4714
     25 C         140.7715  143.7119  169.8139 C.3     1  UNL1        0.2525
@<TRIPOS>BOND
     1    18    19    1
     2    19    17    1
     3    16    17    1
     4    16    20    1
     5    20    21    1
     6    21    22    1
     7    16    14    1
     8    14     1    1
     9     1     2   ar
    10     2     3   ar
    11     3     4    1
    12     3     5   ar
    13     5     6   ar
    14     6     7   ar
    15     7     8   ar
    16     8    24    1
    17    24    25    1
    18     8     9   ar
    19     9    10   ar
    20    10    11   ar
    21    11     1   ar
    22    11     6   ar
    23    22    23    1
    24    14    15    1
    25     4    12    1
    26     4    13    1
