@<TRIPOS>MOLECULE
*****
 29 32 0 0 0
SMALL
GASTEIGER

@<TRIPOS>ATOM
      1 C         141.4510  142.0709  166.1606 C.2     1  UNL1        0.0196
      2 C         140.9674  142.5526  167.4964 C.2     1  UNL1        0.0145
      3 C         141.2437  141.7450  168.7298 C.3     1  UNL1        0.1542
      4 C         140.4839  143.0342  168.8321 C.3     1  UNL1        0.0614
      5 C         140.0004  143.5158  170.1678 C.3     1  UNL1        0.0725
      6 N         140.2767  142.7082  171.4013 N.3     1  UNL1       -0.2972
      7 C         141.0365  141.4190  171.2990 C.3     1  UNL1        0.0725
      8 C         141.5200  140.9374  169.9633 C.3     1  UNL1        0.0614
      9 O         142.0036  140.4557  168.6275 O.3     1  UNL1       -0.4785
     10 C         142.4871  139.9741  167.2918 C.ar    1  UNL1        0.1386
     11 C         143.2470  138.6848  167.1895 C.ar    1  UNL1        0.0369
     12 C         143.7305  138.2032  165.8537 C.ar    1  UNL1        0.0031
     13 C         143.4542  139.0108  164.6203 C.ar    1  UNL1        0.0002
     14 C         142.6944  140.3000  164.7226 C.ar    1  UNL1        0.0031
     15 C         142.2108  140.7817  166.0583 C.ar    1  UNL1        0.0352
     16 H         139.3719  142.4846  171.8157 H       1  UNL1        0.1233
     17 C         140.6221  144.4938  162.4603 C.ar    1  UNL1        0.0727
     18 C         141.8161  144.8094  163.3115 C.ar    1  UNL1        0.0076
     19 C         142.0924  144.0018  164.5450 C.ar    1  UNL1        0.0193
     20 C         141.1747  142.8786  164.9272 C.ar    1  UNL1        0.0812
     21 N         139.9806  142.5629  164.0759 N.ar    1  UNL1       -0.2437
     22 C         139.7043  143.3705  162.8424 C.ar    1  UNL1        0.1033
     23 N         141.0504  144.9754  159.9434 N.am    1  UNL1       -0.2760
     24 C         140.3458  145.3014  161.2268 C.2     1  UNL1        0.2505
     25 O         139.3649  146.4352  161.2768 O.2     1  UNL1       -0.2699
     26 C         141.8163  145.8933  157.6367 C.3     1  UNL1        0.0233
     27 C         140.7741  145.7830  158.7100 C.3     1  UNL1        0.0938
     28 C         142.0314  143.8416  159.8934 C.3     1  UNL1        0.0938
     29 C         141.5834  142.4813  159.4476 C.3     1  UNL1        0.0233
@<TRIPOS>BOND
     1    26    27    1
     2    27    23    1
     3    23    28    1
     4    28    29    1
     5    23    24   am
     6    24    25    2
     7    24    17    1
     8    17    18   ar
     9    18    19   ar
    10    19    20   ar
    11    20     1    1
    12     1     2    2
    13     2     3    1
    14     3     4    1
    15     4     5    1
    16     5     6    1
    17     6     7    1
    18     7     8    1
    19     3     9    1
    20     9    10    1
    21    10    11   ar
    22    11    12   ar
    23    12    13   ar
    24    13    14   ar
    25    14    15   ar
    26    20    21   ar
    27    21    22   ar
    28    22    17   ar
    29    15     1    1
    30     8     3    1
    31    15    10   ar
    32     6    16    1
@<TRIPOS>MOLECULE
*****
 29 32 0 0 0
SMALL
GASTEIGER

@<TRIPOS>ATOM
      1 C         141.5032  140.9546  166.3169 C.2     1  UNL1        0.0196
      2 C         142.1284  141.5791  167.5291 C.2     1  UNL1        0.0145
      3 C         141.4896  141.4070  168.8753 C.3     1  UNL1        0.1542
      4 C         142.7535  142.2036  168.7412 C.3     1  UNL1        0.0614
      5 C         143.3787  142.8280  169.9533 C.3     1  UNL1        0.0725
      6 N         142.7399  142.6559  171.2995 N.3     1  UNL1       -0.2972
      7 C         141.4760  141.8593  171.4336 C.3     1  UNL1        0.0725
      8 C         140.8509  141.2349  170.2215 C.3     1  UNL1        0.0614
      9 O         140.2257  140.6104  169.0094 O.3     1  UNL1       -0.4785
     10 C         139.6005  139.9860  167.7973 C.ar    1  UNL1        0.1386
     11 C         138.3366  139.1894  167.9314 C.ar    1  UNL1        0.0369
     12 C         137.7114  138.5650  166.7193 C.ar    1  UNL1        0.0031
     13 C         138.3502  138.7371  165.3730 C.ar    1  UNL1        0.0002
     14 C         139.6141  139.5336  165.2389 C.ar    1  UNL1        0.0031
     15 C         140.2393  140.1581  166.4510 C.ar    1  UNL1        0.0352
     16 H         142.5369  143.5917  171.6509 H       1  UNL1        0.1233
     17 C         143.4195  141.4710  162.2782 C.ar    1  UNL1        0.0727
     18 C         143.9212  140.4140  163.2168 C.ar    1  UNL1        0.0076
     19 C         143.2825  140.2419  164.5630 C.ar    1  UNL1        0.0193
     20 C         142.1419  141.1268  164.9707 C.ar    1  UNL1        0.0812
     21 N         141.6401  142.1838  164.0320 N.ar    1  UNL1       -0.2437
     22 C         142.2789  142.3559  162.6858 C.ar    1  UNL1        0.1033
     23 N         143.6115  140.7977  159.7762 N.am    1  UNL1       -0.2760
     24 C         144.0582  141.6431  160.9319 C.2     1  UNL1        0.2505
     25 O         145.1438  142.6607  160.7414 O.2     1  UNL1       -0.2699
     26 C         143.8821  142.1420  157.5695 C.3     1  UNL1        0.0233
     27 C         144.2503  140.9698  158.4300 C.3     1  UNL1        0.0938
     28 C         142.5260  139.7801  159.9668 C.3     1  UNL1        0.0938
     29 C         142.8779  138.3338  160.1521 C.3     1  UNL1        0.0233
@<TRIPOS>BOND
     1    26    27    1
     2    27    23    1
     3    23    28    1
     4    28    29    1
     5    23    24   am
     6    24    25    2
     7    24    17    1
     8    17    18   ar
     9    18    19   ar
    10    19    20   ar
    11    20     1    1
    12     1     2    2
    13     2     3    1
    14     3     4    1
    15     4     5    1
    16     5     6    1
    17     6     7    1
    18     7     8    1
    19     3     9    1
    20     9    10    1
    21    10    11   ar
    22    11    12   ar
    23    12    13   ar
    24    13    14   ar
    25    14    15   ar
    26    20    21   ar
    27    21    22   ar
    28    22    17   ar
    29    15     1    1
    30     8     3    1
    31    15    10   ar
    32     6    16    1
@<TRIPOS>MOLECULE
*****
 29 32 0 0 0
SMALL
GASTEIGER

@<TRIPOS>ATOM
      1 C         139.8083  141.9271  165.7470 C.2     1  UNL1        0.0196
      2 C         140.1667  142.4701  167.0986 C.2     1  UNL1        0.0145
      3 C         140.1368  141.5721  168.2997 C.3     1  UNL1        0.1542
      4 C         140.5251  143.0131  168.4501 C.3     1  UNL1        0.0614
      5 C         140.8835  143.5561  169.8017 C.3     1  UNL1        0.0725
      6 N         140.8536  142.6580  171.0028 N.3     1  UNL1       -0.2972
      7 C         140.4653  141.2170  170.8523 C.3     1  UNL1        0.0725
      8 C         140.1069  140.6740  169.5008 C.3     1  UNL1        0.0614
      9 O         139.7486  140.1310  168.1492 O.3     1  UNL1       -0.4785
     10 C         139.3902  139.5880  166.7976 C.ar    1  UNL1        0.1386
     11 C         139.0019  138.1469  166.6471 C.ar    1  UNL1        0.0369
     12 C         138.6435  137.6040  165.2956 C.ar    1  UNL1        0.0031
     13 C         138.6734  138.5020  164.0945 C.ar    1  UNL1        0.0002
     14 C         139.0617  139.9430  164.2449 C.ar    1  UNL1        0.0031
     15 C         139.4201  140.4861  165.5965 C.ar    1  UNL1        0.0352
     16 H         140.1968  143.0724  171.6640 H       1  UNL1        0.1233
     17 C         139.8980  144.6212  162.1437 C.ar    1  UNL1        0.0727
     18 C         141.1622  144.3369  162.8992 C.ar    1  UNL1        0.0076
     19 C         141.1323  143.4389  164.1003 C.ar    1  UNL1        0.0193
     20 C         139.8382  142.8251  164.5459 C.ar    1  UNL1        0.0812
     21 N         138.5739  143.1094  163.7904 N.ar    1  UNL1       -0.2437
     22 C         138.6038  144.0075  162.5893 C.ar    1  UNL1        0.1033
     23 N         140.3918  144.9867  159.6193 N.am    1  UNL1       -0.2760
     24 C         139.9279  145.5193  160.9426 C.2     1  UNL1        0.2505
     25 O         139.4939  146.9500  161.0649 O.2     1  UNL1       -0.2699
     26 C         141.6266  145.9026  157.5249 C.3     1  UNL1        0.0233
     27 C         140.4217  145.8848  158.4182 C.3     1  UNL1        0.0938
     28 C         140.8258  143.5560  159.4971 C.3     1  UNL1        0.0938
     29 C         139.8358  142.5038  159.0937 C.3     1  UNL1        0.0233
@<TRIPOS>BOND
     1    26    27    1
     2    27    23    1
     3    23    28    1
     4    28    29    1
     5    23    24   am
     6    24    25    2
     7    24    17    1
     8    17    18   ar
     9    18    19   ar
    10    19    20   ar
    11    20     1    1
    12     1     2    2
    13     2     3    1
    14     3     4    1
    15     4     5    1
    16     5     6    1
    17     6     7    1
    18     7     8    1
    19     3     9    1
    20     9    10    1
    21    10    11   ar
    22    11    12   ar
    23    12    13   ar
    24    13    14   ar
    25    14    15   ar
    26    20    21   ar
    27    21    22   ar
    28    22    17   ar
    29    15     1    1
    30     8     3    1
    31    15    10   ar
    32     6    16    1
@<TRIPOS>MOLECULE
*****
 29 32 0 0 0
SMALL
GASTEIGER

@<TRIPOS>ATOM
      1 C         141.3575  140.1739  166.2303 C.2     1  UNL1        0.0196
      2 C         142.2067  140.9871  167.1618 C.2     1  UNL1        0.0145
      3 C         141.7403  141.2531  168.5624 C.3     1  UNL1        0.1542
      4 C         143.0557  141.8004  168.0933 C.3     1  UNL1        0.0614
      5 C         143.9047  142.6136  169.0248 C.3     1  UNL1        0.0725
      6 N         143.4383  142.8796  170.4254 N.3     1  UNL1       -0.2972
      7 C         142.1229  142.3323  170.8945 C.3     1  UNL1        0.0725
      8 C         141.2739  141.5191  169.9630 C.3     1  UNL1        0.0614
      9 O         140.4248  140.7058  169.0315 O.3     1  UNL1       -0.4785
     10 C         139.5757  139.8926  168.1000 C.ar    1  UNL1        0.1386
     11 C         138.2602  139.3453  168.5691 C.ar    1  UNL1        0.0369
     12 C         137.4112  138.5321  167.6376 C.ar    1  UNL1        0.0031
     13 C         137.8776  138.2661  166.2370 C.ar    1  UNL1        0.0002
     14 C         139.1930  138.8133  165.7679 C.ar    1  UNL1        0.0031
     15 C         140.0421  139.6266  166.6994 C.ar    1  UNL1        0.0352
     16 H         143.3908  143.8928  170.5325 H       1  UNL1        0.1233
     17 C         142.7567  139.3759  162.0284 C.ar    1  UNL1        0.0727
     18 C         142.9288  138.3281  163.0879 C.ar    1  UNL1        0.0076
     19 C         142.4624  138.5941  164.4885 C.ar    1  UNL1        0.0193
     20 C         141.8239  139.9079  164.8296 C.ar    1  UNL1        0.0812
     21 N         141.6519  140.9557  163.7701 N.ar    1  UNL1       -0.2437
     22 C         142.1182  140.6897  162.3695 C.ar    1  UNL1        0.1033
     23 N         142.2358  138.7098  159.5718 N.am    1  UNL1       -0.2760
     24 C         143.2231  139.1099  160.6278 C.2     1  UNL1        0.2505
     25 O         144.6769  139.2440  160.2832 O.2     1  UNL1       -0.2699
     26 C         142.6176  137.0581  157.6029 C.3     1  UNL1        0.0233
     27 C         142.7022  138.4438  158.1712 C.3     1  UNL1        0.0938
     28 C         140.7821  138.5757  159.9164 C.3     1  UNL1        0.0938
     29 C         139.7893  139.5621  159.3768 C.3     1  UNL1        0.0233
@<TRIPOS>BOND
     1    26    27    1
     2    27    23    1
     3    23    28    1
     4    28    29    1
     5    23    24   am
     6    24    25    2
     7    24    17    1
     8    17    18   ar
     9    18    19   ar
    10    19    20   ar
    11    20     1    1
    12     1     2    2
    13     2     3    1
    14     3     4    1
    15     4     5    1
    16     5     6    1
    17     6     7    1
    18     7     8    1
    19     3     9    1
    20     9    10    1
    21    10    11   ar
    22    11    12   ar
    23    12    13   ar
    24    13    14   ar
    25    14    15   ar
    26    20    21   ar
    27    21    22   ar
    28    22    17   ar
    29    15     1    1
    30     8     3    1
    31    15    10   ar
    32     6    16    1
@<TRIPOS>MOLECULE
*****
 29 32 0 0 0
SMALL
GASTEIGER

@<TRIPOS>ATOM
      1 C         141.4507  140.4962  166.3227 C.2     1  UNL1        0.0196
      2 C         142.1705  141.2246  167.4188 C.2     1  UNL1        0.0145
      3 C         141.5793  141.2804  168.7963 C.3     1  UNL1        0.1542
      4 C         142.8902  141.9530  168.5149 C.3     1  UNL1        0.0614
      5 C         143.6099  142.6814  169.6110 C.3     1  UNL1        0.0725
      6 N         143.0187  142.7372  170.9885 N.3     1  UNL1       -0.2972
      7 C         141.7078  142.0646  171.2698 C.3     1  UNL1        0.0725
      8 C         140.9882  141.3362  170.1738 C.3     1  UNL1        0.0614
      9 O         140.2684  140.6078  169.0776 O.3     1  UNL1       -0.4785
     10 C         139.5487  139.8794  167.9816 C.ar    1  UNL1        0.1386
     11 C         138.2377  139.2068  168.2629 C.ar    1  UNL1        0.0369
     12 C         137.5180  138.4784  167.1668 C.ar    1  UNL1        0.0031
     13 C         138.1092  138.4226  165.7894 C.ar    1  UNL1        0.0002
     14 C         139.4201  139.0952  165.5080 C.ar    1  UNL1        0.0031
     15 C         140.1398  139.8236  166.6041 C.ar    1  UNL1        0.0352
     16 H         142.8986  143.7238  171.2176 H       1  UNL1        0.1233
     17 C         143.2242  140.3287  162.1903 C.ar    1  UNL1        0.0727
     18 C         141.8520  140.8987  162.3950 C.ar    1  UNL1        0.0076
     19 C         141.2608  140.9545  163.7725 C.ar    1  UNL1        0.0193
     20 C         142.0419  140.4404  164.9453 C.ar    1  UNL1        0.0812
     21 N         143.4142  139.8703  164.7406 N.ar    1  UNL1       -0.2437
     22 C         144.0054  139.8145  163.3631 C.ar    1  UNL1        0.1033
     23 N         144.0461  141.5399  160.0438 N.am    1  UNL1       -0.2760
     24 C         143.8154  140.2729  160.8129 C.2     1  UNL1        0.2505
     25 O         144.1758  138.9500  160.2044 O.2     1  UNL1       -0.2699
     26 C         144.3313  142.5670  157.6745 C.3     1  UNL1        0.0233
     27 C         144.6373  141.4841  158.6664 C.3     1  UNL1        0.0938
     28 C         143.6857  142.8628  160.6523 C.3     1  UNL1        0.0938
     29 C         144.5152  143.4262  161.7678 C.3     1  UNL1        0.0233
@<TRIPOS>BOND
     1    26    27    1
     2    27    23    1
     3    23    28    1
     4    28    29    1
     5    23    24   am
     6    24    25    2
     7    24    17    1
     8    17    18   ar
     9    18    19   ar
    10    19    20   ar
    11    20     1    1
    12     1     2    2
    13     2     3    1
    14     3     4    1
    15     4     5    1
    16     5     6    1
    17     6     7    1
    18     7     8    1
    19     3     9    1
    20     9    10    1
    21    10    11   ar
    22    11    12   ar
    23    12    13   ar
    24    13    14   ar
    25    14    15   ar
    26    20    21   ar
    27    21    22   ar
    28    22    17   ar
    29    15     1    1
    30     8     3    1
    31    15    10   ar
    32     6    16    1
@<TRIPOS>MOLECULE
*****
 29 32 0 0 0
SMALL
GASTEIGER

@<TRIPOS>ATOM
      1 C         140.3773  142.3920  161.4344 C.2     1  UNL1        0.0196
      2 C         141.8534  142.1259  161.4583 C.2     1  UNL1        0.0145
      3 C         142.6762  142.5676  162.6321 C.3     1  UNL1        0.1542
      4 C         143.3294  141.8599  161.4822 C.3     1  UNL1        0.0614
      5 C         144.8054  141.5938  161.5061 C.3     1  UNL1        0.0725
      6 N         145.6281  142.0355  162.6800 N.3     1  UNL1       -0.2972
      7 C         144.9749  142.7432  163.8299 C.3     1  UNL1        0.0725
      8 C         143.4990  143.0092  163.8060 C.3     1  UNL1        0.0614
      9 O         142.0229  143.2753  163.7821 O.3     1  UNL1       -0.4785
     10 C         140.5469  143.5414  163.7582 C.ar    1  UNL1        0.1386
     11 C         139.8936  144.2492  164.9082 C.ar    1  UNL1        0.0369
     12 C         138.4176  144.5152  164.8843 C.ar    1  UNL1        0.0031
     13 C         137.5948  144.0736  163.7104 C.ar    1  UNL1        0.0002
     14 C         138.2480  143.3658  162.5604 C.ar    1  UNL1        0.0031
     15 C         139.7241  143.0997  162.5843 C.ar    1  UNL1        0.0352
     16 H         146.3456  142.6631  162.3171 H       1  UNL1        0.1233
     17 C         137.9089  141.0670  157.9128 C.ar    1  UNL1        0.0727
     18 C         138.2779  140.0828  158.9828 C.ar    1  UNL1        0.0076
     19 C         139.1007  140.5245  160.1567 C.ar    1  UNL1        0.0193
     20 C         139.5545  141.9504  160.2605 C.ar    1  UNL1        0.0812
     21 N         139.1855  142.9347  159.1904 N.ar    1  UNL1       -0.2437
     22 C         138.3627  142.4930  158.0166 C.ar    1  UNL1        0.1033
     23 N         137.7605  140.1837  155.4740 N.am    1  UNL1       -0.2760
     24 C         137.0861  140.6254  156.7389 C.2     1  UNL1        0.2505
     25 O         135.5889  140.6254  156.8300 O.2     1  UNL1       -0.2699
     26 C         136.5993  138.2912  154.1249 C.3     1  UNL1        0.0233
     27 C         136.9378  139.7420  154.3002 C.3     1  UNL1        0.0938
     28 C         139.2578  140.1836  155.3829 C.3     1  UNL1        0.0938
     29 C         140.0318  138.9538  155.7550 C.3     1  UNL1        0.0233
@<TRIPOS>BOND
     1    26    27    1
     2    27    23    1
     3    23    28    1
     4    28    29    1
     5    23    24   am
     6    24    25    2
     7    24    17    1
     8    17    18   ar
     9    18    19   ar
    10    19    20   ar
    11    20     1    1
    12     1     2    2
    13     2     3    1
    14     3     4    1
    15     4     5    1
    16     5     6    1
    17     6     7    1
    18     7     8    1
    19     3     9    1
    20     9    10    1
    21    10    11   ar
    22    11    12   ar
    23    12    13   ar
    24    13    14   ar
    25    14    15   ar
    26    20    21   ar
    27    21    22   ar
    28    22    17   ar
    29    15     1    1
    30     8     3    1
    31    15    10   ar
    32     6    16    1
@<TRIPOS>MOLECULE
*****
 29 32 0 0 0
SMALL
GASTEIGER

@<TRIPOS>ATOM
      1 C         140.2783  140.3493  162.4475 C.2     1  UNL1        0.0196
      2 C         140.2917  141.8486  162.4927 C.2     1  UNL1        0.0145
      3 C         139.6847  142.5691  163.6599 C.3     1  UNL1        0.1542
      4 C         140.3051  143.3478  162.5380 C.3     1  UNL1        0.0614
      5 C         140.3185  144.8470  162.5832 C.3     1  UNL1        0.0725
      6 N         139.7115  145.5676  163.7505 N.3     1  UNL1       -0.2972
      7 C         139.0912  144.7889  164.8724 C.3     1  UNL1        0.0725
      8 C         139.0778  143.2897  164.8271 C.3     1  UNL1        0.0614
      9 O         139.0643  141.7904  164.7819 O.3     1  UNL1       -0.4785
     10 C         139.0510  140.2912  164.7366 C.ar    1  UNL1        0.1386
     11 C         138.4306  139.5124  165.8586 C.ar    1  UNL1        0.0369
     12 C         138.4172  138.0132  165.8133 C.ar    1  UNL1        0.0031
     13 C         139.0242  137.2926  164.6461 C.ar    1  UNL1        0.0002
     14 C         139.6445  138.0713  163.5242 C.ar    1  UNL1        0.0031
     15 C         139.6579  139.5706  163.5694 C.ar    1  UNL1        0.0352
     16 H         138.9828  146.1746  163.3752 H       1  UNL1        0.1233
     17 C         142.0992  138.1876  158.9458 C.ar    1  UNL1        0.0727
     18 C         140.6465  138.5604  158.9240 C.ar    1  UNL1        0.0076
     19 C         140.0395  139.2810  160.0913 C.ar    1  UNL1        0.0193
     20 C         140.8853  139.6287  161.2802 C.ar    1  UNL1        0.0812
     21 N         142.3381  139.2559  161.3021 N.ar    1  UNL1       -0.2437
     22 C         142.9450  138.5353  160.1349 C.ar    1  UNL1        0.1033
     23 N         143.1524  138.2373  156.5714 N.am    1  UNL1       -0.2760
     24 C         142.7062  137.4670  157.7786 C.2     1  UNL1        0.2505
     25 O         142.8668  135.9761  157.8187 O.2     1  UNL1       -0.2699
     26 C         142.8778  136.8038  154.4220 C.3     1  UNL1        0.0233
     27 C         143.7594  137.5167  155.4041 C.3     1  UNL1        0.0938
     28 C         142.9918  139.7282  156.5313 C.3     1  UNL1        0.0938
     29 C         141.8621  140.3402  155.7572 C.3     1  UNL1        0.0233
@<TRIPOS>BOND
     1    26    27    1
     2    27    23    1
     3    23    28    1
     4    28    29    1
     5    23    24   am
     6    24    25    2
     7    24    17    1
     8    17    18   ar
     9    18    19   ar
    10    19    20   ar
    11    20     1    1
    12     1     2    2
    13     2     3    1
    14     3     4    1
    15     4     5    1
    16     5     6    1
    17     6     7    1
    18     7     8    1
    19     3     9    1
    20     9    10    1
    21    10    11   ar
    22    11    12   ar
    23    12    13   ar
    24    13    14   ar
    25    14    15   ar
    26    20    21   ar
    27    21    22   ar
    28    22    17   ar
    29    15     1    1
    30     8     3    1
    31    15    10   ar
    32     6    16    1
@<TRIPOS>MOLECULE
*****
 29 32 0 0 0
SMALL
GASTEIGER

@<TRIPOS>ATOM
      1 C         141.6247  140.1748  163.6481 C.2     1  UNL1        0.0196
      2 C         140.5080  139.5895  164.4607 C.2     1  UNL1        0.0145
      3 C         140.3339  139.9915  165.8953 C.3     1  UNL1        0.1542
      4 C         139.3912  139.0043  165.2734 C.3     1  UNL1        0.0614
      5 C         138.2745  138.4191  166.0860 C.3     1  UNL1        0.0725
      6 N         138.1004  138.8211  167.5206 N.3     1  UNL1       -0.2972
      7 C         139.0430  139.8083  168.1426 C.3     1  UNL1        0.0725
      8 C         140.1598  140.3935  167.3300 C.3     1  UNL1        0.0614
      9 O         141.2765  140.9788  166.5173 O.3     1  UNL1       -0.4785
     10 C         142.3932  141.5640  165.7047 C.ar    1  UNL1        0.1386
     11 C         143.3359  142.5513  166.3266 C.ar    1  UNL1        0.0369
     12 C         144.4526  143.1365  165.5140 C.ar    1  UNL1        0.0031
     13 C         144.6267  142.7345  164.0794 C.ar    1  UNL1        0.0002
     14 C         143.6841  141.7473  163.4574 C.ar    1  UNL1        0.0031
     15 C         142.5673  141.1620  164.2700 C.ar    1  UNL1        0.0352
     16 H         138.1605  137.9671  168.0751 H       1  UNL1        0.1233
     17 C         142.1470  138.9689  159.3443 C.ar    1  UNL1        0.0727
     18 C         141.2242  140.0964  159.7005 C.ar    1  UNL1        0.0076
     19 C         141.0501  140.4984  161.1351 C.ar    1  UNL1        0.0193
     20 C         141.7988  139.7728  162.2135 C.ar    1  UNL1        0.0812
     21 N         142.7217  138.6452  161.8573 N.ar    1  UNL1       -0.2437
     22 C         142.8958  138.2432  160.4226 C.ar    1  UNL1        0.1033
     23 N         143.3441  139.2564  157.0564 N.am    1  UNL1       -0.2760
     24 C         142.3211  138.5669  157.9097 C.2     1  UNL1        0.2505
     25 O         141.4722  137.4754  157.3283 O.2     1  UNL1       -0.2699
     26 C         144.3060  137.6250  155.2777 C.3     1  UNL1        0.0233
     27 C         143.5182  138.8544  155.6218 C.3     1  UNL1        0.0938
     28 C         144.1931  140.3479  157.6378 C.3     1  UNL1        0.0938
     29 C         145.2722  140.9802  156.8098 C.3     1  UNL1        0.0233
@<TRIPOS>BOND
     1    26    27    1
     2    27    23    1
     3    23    28    1
     4    28    29    1
     5    23    24   am
     6    24    25    2
     7    24    17    1
     8    17    18   ar
     9    18    19   ar
    10    19    20   ar
    11    20     1    1
    12     1     2    2
    13     2     3    1
    14     3     4    1
    15     4     5    1
    16     5     6    1
    17     6     7    1
    18     7     8    1
    19     3     9    1
    20     9    10    1
    21    10    11   ar
    22    11    12   ar
    23    12    13   ar
    24    13    14   ar
    25    14    15   ar
    26    20    21   ar
    27    21    22   ar
    28    22    17   ar
    29    15     1    1
    30     8     3    1
    31    15    10   ar
    32     6    16    1
@<TRIPOS>MOLECULE
*****
 29 32 0 0 0
SMALL
GASTEIGER

@<TRIPOS>ATOM
      1 C         140.9822  140.2183  161.4908 C.2     1  UNL1        0.0196
      2 C         142.3232  140.8899  161.5160 C.2     1  UNL1        0.0145
      3 C         143.2589  140.6536  162.6643 C.3     1  UNL1        0.1542
      4 C         143.6643  141.5615  161.5412 C.3     1  UNL1        0.0614
      5 C         145.0053  142.2330  161.5664 C.3     1  UNL1        0.0725
      6 N         145.9410  141.9967  162.7147 N.3     1  UNL1       -0.2972
      7 C         145.5356  141.0888  163.8378 C.3     1  UNL1        0.0725
      8 C         144.1946  140.4172  163.8126 C.3     1  UNL1        0.0614
      9 O         142.8536  139.7456  163.7874 O.3     1  UNL1       -0.4785
     10 C         141.5126  139.0741  163.7622 C.ar    1  UNL1        0.1386
     11 C         141.1072  138.1661  164.8854 C.ar    1  UNL1        0.0369
     12 C         139.7662  137.4946  164.8601 C.ar    1  UNL1        0.0031
     13 C         138.8305  137.7309  163.7118 C.ar    1  UNL1        0.0002
     14 C         139.2358  138.6388  162.5887 C.ar    1  UNL1        0.0031
     15 C         140.5769  139.3104  162.6139 C.ar    1  UNL1        0.0352
     16 H         146.1353  142.9084  163.1287 H       1  UNL1        0.1233
     17 C         138.1751  140.9274  158.0459 C.ar    1  UNL1        0.0727
     18 C         138.1986  141.8818  159.2029 C.ar    1  UNL1        0.0076
     19 C         139.1343  141.6454  160.3512 C.ar    1  UNL1        0.0193
     20 C         140.0465  140.4547  160.3425 C.ar    1  UNL1        0.0812
     21 N         140.0230  139.5003  159.1855 N.ar    1  UNL1       -0.2437
     22 C         139.0873  139.7366  158.0372 C.ar    1  UNL1        0.1033
     23 N         137.6410  142.0789  155.7790 N.am    1  UNL1       -0.2760
     24 C         137.2394  141.1638  156.8976 C.2     1  UNL1        0.2505
     25 O         135.9020  140.4850  156.8679 O.2     1  UNL1       -0.2699
     26 C         136.8554  141.5232  153.3657 C.3     1  UNL1        0.0233
     27 C         136.7053  142.3153  154.6307 C.3     1  UNL1        0.0938
     28 C         138.9783  142.7577  155.8087 C.3     1  UNL1        0.0938
     29 C         139.0927  144.1679  156.3068 C.3     1  UNL1        0.0233
@<TRIPOS>BOND
     1    26    27    1
     2    27    23    1
     3    23    28    1
     4    28    29    1
     5    23    24   am
     6    24    25    2
     7    24    17    1
     8    17    18   ar
     9    18    19   ar
    10    19    20   ar
    11    20     1    1
    12     1     2    2
    13     2     3    1
    14     3     4    1
    15     4     5    1
    16     5     6    1
    17     6     7    1
    18     7     8    1
    19     3     9    1
    20     9    10    1
    21    10    11   ar
    22    11    12   ar
    23    12    13   ar
    24    13    14   ar
    25    14    15   ar
    26    20    21   ar
    27    21    22   ar
    28    22    17   ar
    29    15     1    1
    30     8     3    1
    31    15    10   ar
    32     6    16    1
