@<TRIPOS>MOLECULE
*****
 29 32 0 0 0
SMALL
GASTEIGER

@<TRIPOS>ATOM
      1 C         139.7636  138.3474  162.6047 C.ar    1  UNL1        0.0853
      2 C         141.0681  137.6071  162.6239 C.ar    1  UNL1        0.1045
      3 N         141.9923  137.7465  163.7970 N.ar    1  UNL1       -0.2436
      4 C         141.6121  138.6261  164.9511 C.ar    1  UNL1        0.0825
      5 C         142.5364  138.7655  166.1242 C.ar    1  UNL1        0.0191
      6 C         142.1561  139.6451  167.2781 C.ar    1  UNL1        0.0016
      7 C         140.8517  140.3854  167.2589 C.ar    1  UNL1        0.0016
      8 C         139.9274  140.2460  166.0858 C.ar    1  UNL1        0.0028
      9 C         140.3077  139.3664  164.9319 C.ar    1  UNL1        0.0309
     10 C         139.3834  139.2270  163.7586 C.ar    1  UNL1        0.0519
     11 C         140.4715  141.2650  168.4130 C.ar    1  UNL1        0.0192
     12 C         140.9124  142.6985  168.4405 C.ar    1  UNL1        0.0031
     13 C         140.5322  143.5781  169.5945 C.ar    1  UNL1        0.0207
     14 C         139.7111  143.0243  170.7210 C.ar    1  UNL1        0.0989
     15 N         139.2701  141.5908  170.6934 N.ar    1  UNL1       -0.2423
     16 C         139.6503  140.7112  169.5394 C.ar    1  UNL1        0.0988
     17 N         139.3801  138.3017  160.0354 N.am    1  UNL1       -0.3252
     18 C         138.8394  138.2080  161.4315 C.2     1  UNL1        0.2455
     19 O         137.3745  137.9748  161.6543 O.2     1  UNL1       -0.2703
     20 H         138.7735  138.2102  159.2654 H       1  UNL1        0.1453
     21 H         140.3416  138.4547  159.8892 H       1  UNL1        0.1453
     22 N         138.0789  139.9672  163.7394 N.pl3   1  UNL1       -0.3337
     23 H         137.2578  139.5259  164.0558 H       1  UNL1        0.1468
     24 C         138.0256  141.3801  163.2382 C.3     1  UNL1        0.0740
     25 C         138.2341  141.6671  161.7808 C.3     1  UNL1        0.0516
     26 C         138.1808  143.0799  161.2796 C.3     1  UNL1        0.1439
     27 O         137.9190  144.2056  162.2358 O.3     1  UNL1       -0.3537
     28 C         137.7106  143.9185  163.6932 C.3     1  UNL1        0.1439
     29 C         137.7639  142.5057  164.1944 C.3     1  UNL1        0.0516
@<TRIPOS>BOND
     1    17    18   am
     2    18    19    2
     3    18     1    1
     4     1     2   ar
     5     2     3   ar
     6     3     4   ar
     7     4     5   ar
     8     5     6   ar
     9     6     7   ar
    10     7    11    1
    11    11    12   ar
    12    12    13   ar
    13    13    14   ar
    14    14    15   ar
    15    15    16   ar
    16     7     8   ar
    17     8     9   ar
    18     9    10   ar
    19    10    22    1
    20    22    24    1
    21    24    25    1
    22    25    26    1
    23    26    27    1
    24    27    28    1
    25    28    29    1
    26    10     1   ar
    27    29    24    1
    28     9     4   ar
    29    16    11   ar
    30    17    20    1
    31    17    21    1
    32    22    23    1
@<TRIPOS>MOLECULE
*****
 29 32 0 0 0
SMALL
GASTEIGER

@<TRIPOS>ATOM
      1 C         141.6500  141.6086  169.1895 C.ar    1  UNL1        0.0853
      2 C         140.8872  140.7401  170.1455 C.ar    1  UNL1        0.1045
      3 N         139.7580  139.8879  169.6472 N.ar    1  UNL1       -0.2436
      4 C         139.3914  139.9040  168.1927 C.ar    1  UNL1        0.0825
      5 C         138.2622  139.0518  167.6943 C.ar    1  UNL1        0.0191
      6 C         137.8956  139.0680  166.2399 C.ar    1  UNL1        0.0016
      7 C         138.6584  139.9365  165.2839 C.ar    1  UNL1        0.0016
      8 C         139.7876  140.7887  165.7822 C.ar    1  UNL1        0.0028
      9 C         140.1542  140.7725  167.2367 C.ar    1  UNL1        0.0309
     10 C         141.2835  141.6248  167.7351 C.ar    1  UNL1        0.0519
     11 C         138.2918  139.9526  163.8294 C.ar    1  UNL1        0.0192
     12 C         138.4595  138.7142  162.9999 C.ar    1  UNL1        0.0031
     13 C         138.0929  138.7304  161.5454 C.ar    1  UNL1        0.0207
     14 C         137.5587  139.9850  160.9205 C.ar    1  UNL1        0.0989
     15 N         137.3910  141.2235  161.7501 N.ar    1  UNL1       -0.2423
     16 C         137.7575  141.2073  163.2045 C.ar    1  UNL1        0.0988
     17 N         142.7114  143.0702  171.0569 N.am    1  UNL1       -0.3252
     18 C         142.7793  142.4608  169.6879 C.2     1  UNL1        0.2455
     19 O         143.9764  142.7037  168.8174 O.2     1  UNL1       -0.2703
     20 H         143.4526  143.6296  171.3840 H       1  UNL1        0.1453
     21 H         141.9257  142.9108  171.6283 H       1  UNL1        0.1453
     22 N         142.0462  142.4932  166.7790 N.pl3   1  UNL1       -0.3337
     23 H         141.8587  143.4586  166.7341 H       1  UNL1        0.1468
     24 C         143.0947  141.8907  165.8915 C.3     1  UNL1        0.0740
     25 C         144.0224  142.7790  165.1168 C.3     1  UNL1        0.0516
     26 C         145.0708  142.1764  164.2293 C.3     1  UNL1        0.1439
     27 O         145.1916  140.6856  164.1165 O.3     1  UNL1       -0.3537
     28 C         144.2639  139.7972  164.8912 C.3     1  UNL1        0.1439
     29 C         143.2154  140.3998  165.7787 C.3     1  UNL1        0.0516
@<TRIPOS>BOND
     1    17    18   am
     2    18    19    2
     3    18     1    1
     4     1     2   ar
     5     2     3   ar
     6     3     4   ar
     7     4     5   ar
     8     5     6   ar
     9     6     7   ar
    10     7    11    1
    11    11    12   ar
    12    12    13   ar
    13    13    14   ar
    14    14    15   ar
    15    15    16   ar
    16     7     8   ar
    17     8     9   ar
    18     9    10   ar
    19    10    22    1
    20    22    24    1
    21    24    25    1
    22    25    26    1
    23    26    27    1
    24    27    28    1
    25    28    29    1
    26    10     1   ar
    27    29    24    1
    28     9     4   ar
    29    16    11   ar
    30    17    20    1
    31    17    21    1
    32    22    23    1
@<TRIPOS>MOLECULE
*****
 29 32 0 0 0
SMALL
GASTEIGER

@<TRIPOS>ATOM
      1 C         138.5910  142.6594  162.7980 C.ar    1  UNL1        0.0853
      2 C         137.7018  141.4951  162.4760 C.ar    1  UNL1        0.1045
      3 N         137.5413  140.3781  163.4641 N.ar    1  UNL1       -0.2436
      4 C         138.2702  140.4252  164.7743 C.ar    1  UNL1        0.0825
      5 C         138.1098  139.3082  165.7624 C.ar    1  UNL1        0.0191
      6 C         138.8387  139.3554  167.0725 C.ar    1  UNL1        0.0016
      7 C         139.7280  140.5196  167.3945 C.ar    1  UNL1        0.0016
      8 C         139.8884  141.6367  166.4064 C.ar    1  UNL1        0.0028
      9 C         139.1595  141.5895  165.0963 C.ar    1  UNL1        0.0309
     10 C         139.3199  142.7066  164.1081 C.ar    1  UNL1        0.0519
     11 C         140.4569  140.5668  168.7047 C.ar    1  UNL1        0.0192
     12 C         141.8542  140.0308  168.8054 C.ar    1  UNL1        0.0031
     13 C         142.5831  140.0779  170.1156 C.ar    1  UNL1        0.0207
     14 C         141.9146  140.6611  171.3251 C.ar    1  UNL1        0.0989
     15 N         140.5172  141.1972  171.2244 N.ar    1  UNL1       -0.2423
     16 C         139.7884  141.1500  169.9143 C.ar    1  UNL1        0.0988
     17 N         139.0188  143.4683  160.3664 N.am    1  UNL1       -0.3252
     18 C         138.7514  143.7765  161.8098 C.2     1  UNL1        0.2455
     19 O         138.6444  145.2017  162.2651 O.2     1  UNL1       -0.2703
     20 H         139.1241  144.2015  159.7178 H       1  UNL1        0.1453
     21 H         139.0891  142.5329  160.0676 H       1  UNL1        0.1453
     22 N         140.2092  143.8709  164.4301 N.pl3   1  UNL1       -0.3337
     23 H         139.8528  144.6379  164.9340 H       1  UNL1        0.1468
     24 C         141.6415  143.8664  163.9844 C.3     1  UNL1        0.0740
     25 C         142.3610  145.1632  163.7594 C.3     1  UNL1        0.0516
     26 C         143.7932  145.1586  163.3137 C.3     1  UNL1        0.1439
     27 O         144.5059  143.8574  163.0931 O.3     1  UNL1       -0.3537
     28 C         143.7864  142.5606  163.3182 C.3     1  UNL1        0.1439
     29 C         142.3542  142.5651  163.7638 C.3     1  UNL1        0.0516
@<TRIPOS>BOND
     1    17    18   am
     2    18    19    2
     3    18     1    1
     4     1     2   ar
     5     2     3   ar
     6     3     4   ar
     7     4     5   ar
     8     5     6   ar
     9     6     7   ar
    10     7    11    1
    11    11    12   ar
    12    12    13   ar
    13    13    14   ar
    14    14    15   ar
    15    15    16   ar
    16     7     8   ar
    17     8     9   ar
    18     9    10   ar
    19    10    22    1
    20    22    24    1
    21    24    25    1
    22    25    26    1
    23    26    27    1
    24    27    28    1
    25    28    29    1
    26    10     1   ar
    27    29    24    1
    28     9     4   ar
    29    16    11   ar
    30    17    20    1
    31    17    21    1
    32    22    23    1
@<TRIPOS>MOLECULE
*****
 29 32 0 0 0
SMALL
GASTEIGER

@<TRIPOS>ATOM
      1 C         140.5196  141.9484  169.0096 C.ar    1  UNL1        0.0853
      2 C         139.6325  141.1268  169.8973 C.ar    1  UNL1        0.1045
      3 N         138.8173  140.0098  169.3162 N.ar    1  UNL1       -0.2436
      4 C         138.8891  139.7144  167.8473 C.ar    1  UNL1        0.0825
      5 C         138.0739  138.5975  167.2661 C.ar    1  UNL1        0.0191
      6 C         138.1458  138.3021  165.7973 C.ar    1  UNL1        0.0016
      7 C         139.0330  139.1237  164.9096 C.ar    1  UNL1        0.0016
      8 C         139.8482  140.2406  165.4907 C.ar    1  UNL1        0.0028
      9 C         139.7763  140.5360  166.9596 C.ar    1  UNL1        0.0309
     10 C         140.5916  141.6530  167.5408 C.ar    1  UNL1        0.0519
     11 C         139.1049  138.8282  163.4407 C.ar    1  UNL1        0.0192
     12 C         138.0414  139.3464  162.5185 C.ar    1  UNL1        0.0031
     13 C         138.1133  139.0510  161.0496 C.ar    1  UNL1        0.0207
     14 C         139.2487  138.2374  160.5029 C.ar    1  UNL1        0.0989
     15 N         140.3122  137.7192  161.4252 N.ar    1  UNL1       -0.2423
     16 C         140.2403  138.0146  162.8940 C.ar    1  UNL1        0.0988
     17 N         140.6521  144.2460  170.2152 N.am    1  UNL1       -0.3252
     18 C         141.3349  143.0654  169.5909 C.2     1  UNL1        0.2455
     19 O         142.8329  143.0017  169.5477 O.2     1  UNL1       -0.2703
     20 H         141.1871  144.9791  170.5967 H       1  UNL1        0.1453
     21 H         139.6689  144.2878  170.2435 H       1  UNL1        0.1453
     22 N         141.4787  142.4745  166.6531 N.pl3   1  UNL1       -0.3337
     23 H         142.4564  142.4354  166.7621 H       1  UNL1        0.1468
     24 C         140.8762  143.3559  165.5993 C.3     1  UNL1        0.0740
     25 C         141.6541  143.6807  164.3586 C.3     1  UNL1        0.0516
     26 C         141.0516  144.5620  163.3049 C.3     1  UNL1        0.1439
     27 O         139.6712  145.1184  163.4919 O.3     1  UNL1       -0.3537
     28 C         138.8934  144.7936  164.7326 C.3     1  UNL1        0.1439
     29 C         139.4959  143.9123  165.7863 C.3     1  UNL1        0.0516
@<TRIPOS>BOND
     1    17    18   am
     2    18    19    2
     3    18     1    1
     4     1     2   ar
     5     2     3   ar
     6     3     4   ar
     7     4     5   ar
     8     5     6   ar
     9     6     7   ar
    10     7    11    1
    11    11    12   ar
    12    12    13   ar
    13    13    14   ar
    14    14    15   ar
    15    15    16   ar
    16     7     8   ar
    17     8     9   ar
    18     9    10   ar
    19    10    22    1
    20    22    24    1
    21    24    25    1
    22    25    26    1
    23    26    27    1
    24    27    28    1
    25    28    29    1
    26    10     1   ar
    27    29    24    1
    28     9     4   ar
    29    16    11   ar
    30    17    20    1
    31    17    21    1
    32    22    23    1
@<TRIPOS>MOLECULE
*****
 29 32 0 0 0
SMALL
GASTEIGER

@<TRIPOS>ATOM
      1 C         142.3265  138.6143  162.5701 C.ar    1  UNL1        0.0853
      2 C         141.1823  137.6862  162.2881 C.ar    1  UNL1        0.1045
      3 N         140.0198  137.6200  163.2337 N.ar    1  UNL1       -0.2436
      4 C         140.0015  138.4818  164.4613 C.ar    1  UNL1        0.0825
      5 C         138.8390  138.4156  165.4069 C.ar    1  UNL1        0.0191
      6 C         138.8208  139.2774  166.6344 C.ar    1  UNL1        0.0016
      7 C         139.9650  140.2055  166.9164 C.ar    1  UNL1        0.0016
      8 C         141.1275  140.2717  165.9708 C.ar    1  UNL1        0.0028
      9 C         141.1457  139.4099  164.7433 C.ar    1  UNL1        0.0309
     10 C         142.3083  139.4761  163.7976 C.ar    1  UNL1        0.0519
     11 C         139.9467  141.0673  168.1440 C.ar    1  UNL1        0.0192
     12 C         140.5019  142.4597  168.0912 C.ar    1  UNL1        0.0031
     13 C         140.4836  143.3216  169.3188 C.ar    1  UNL1        0.0207
     14 C         139.9100  142.7909  170.5992 C.ar    1  UNL1        0.0989
     15 N         139.3548  141.3984  170.6520 N.ar    1  UNL1       -0.2423
     16 C         139.3731  140.5366  169.4244 C.ar    1  UNL1        0.0988
     17 N         144.3413  137.4671  161.3974 N.am    1  UNL1       -0.3252
     18 C         143.4891  138.6805  161.6244 C.2     1  UNL1        0.2455
     19 O         143.7994  139.9600  160.9057 O.2     1  UNL1       -0.2703
     20 H         145.1043  137.5105  160.7768 H       1  UNL1        0.1453
     21 H         144.1376  136.6273  161.8691 H       1  UNL1        0.1453
     22 N         143.4525  140.4041  164.0796 N.pl3   1  UNL1       -0.3337
     23 H         144.3074  140.0452  164.4106 H       1  UNL1        0.1468
     24 C         143.2942  141.8791  163.8572 C.3     1  UNL1        0.0740
     25 C         142.3159  142.3832  162.8380 C.3     1  UNL1        0.0516
     26 C         142.1576  143.8581  162.6157 C.3     1  UNL1        0.1439
     27 O         142.9776  144.8290  163.4125 O.3     1  UNL1       -0.3537
     28 C         143.9559  144.3249  164.4317 C.3     1  UNL1        0.1439
     29 C         144.1142  142.8500  164.6540 C.3     1  UNL1        0.0516
@<TRIPOS>BOND
     1    17    18   am
     2    18    19    2
     3    18     1    1
     4     1     2   ar
     5     2     3   ar
     6     3     4   ar
     7     4     5   ar
     8     5     6   ar
     9     6     7   ar
    10     7    11    1
    11    11    12   ar
    12    12    13   ar
    13    13    14   ar
    14    14    15   ar
    15    15    16   ar
    16     7     8   ar
    17     8     9   ar
    18     9    10   ar
    19    10    22    1
    20    22    24    1
    21    24    25    1
    22    25    26    1
    23    26    27    1
    24    27    28    1
    25    28    29    1
    26    10     1   ar
    27    29    24    1
    28     9     4   ar
    29    16    11   ar
    30    17    20    1
    31    17    21    1
    32    22    23    1
@<TRIPOS>MOLECULE
*****
 29 32 0 0 0
SMALL
GASTEIGER

@<TRIPOS>ATOM
      1 C         140.1315  139.5258  162.0081 C.ar    1  UNL1        0.0853
      2 C         139.1899  138.3595  162.0636 C.ar    1  UNL1        0.1045
      3 N         138.5700  137.9576  163.3691 N.ar    1  UNL1       -0.2436
      4 C         138.8916  138.7221  164.6190 C.ar    1  UNL1        0.0825
      5 C         138.2717  138.3202  165.9244 C.ar    1  UNL1        0.0191
      6 C         138.5934  139.0846  167.1742 C.ar    1  UNL1        0.0016
      7 C         139.5349  140.2510  167.1186 C.ar    1  UNL1        0.0016
      8 C         140.1548  140.6529  165.8132 C.ar    1  UNL1        0.0028
      9 C         139.8332  139.8884  164.5634 C.ar    1  UNL1        0.0309
     10 C         140.4531  140.2903  163.2579 C.ar    1  UNL1        0.0519
     11 C         139.8565  141.0155  168.3685 C.ar    1  UNL1        0.0192
     12 C         140.3773  142.4191  168.2761 C.ar    1  UNL1        0.0031
     13 C         140.6989  143.1836  169.5260 C.ar    1  UNL1        0.0207
     14 C         140.4998  142.5444  170.8683 C.ar    1  UNL1        0.0989
     15 N         139.9789  141.1406  170.9607 N.ar    1  UNL1       -0.2423
     16 C         139.6574  140.3763  169.7108 C.ar    1  UNL1        0.0988
     17 N         141.4673  138.9083  159.8669 N.am    1  UNL1       -0.3252
     18 C         140.7514  139.9277  160.7025 C.2     1  UNL1        0.2455
     19 O         140.6554  141.3490  160.2327 O.2     1  UNL1       -0.2703
     20 H         141.8741  139.1720  159.0101 H       1  UNL1        0.1453
     21 H         141.5303  137.9755  160.1753 H       1  UNL1        0.1453
     22 N         141.3946  141.4567  163.2023 N.pl3   1  UNL1       -0.3337
     23 H         141.0543  142.3541  162.9830 H       1  UNL1        0.1468
     24 C         142.8549  141.2557  163.4808 C.3     1  UNL1        0.0740
     25 C         143.3825  139.8799  163.7609 C.3     1  UNL1        0.0516
     26 C         144.8427  139.6790  164.0394 C.3     1  UNL1        0.1439
     27 O         145.7751  140.8540  164.0377 O.3     1  UNL1       -0.3537
     28 C         145.2474  142.2298  163.7575 C.3     1  UNL1        0.1439
     29 C         143.7873  142.4307  163.4791 C.3     1  UNL1        0.0516
@<TRIPOS>BOND
     1    17    18   am
     2    18    19    2
     3    18     1    1
     4     1     2   ar
     5     2     3   ar
     6     3     4   ar
     7     4     5   ar
     8     5     6   ar
     9     6     7   ar
    10     7    11    1
    11    11    12   ar
    12    12    13   ar
    13    13    14   ar
    14    14    15   ar
    15    15    16   ar
    16     7     8   ar
    17     8     9   ar
    18     9    10   ar
    19    10    22    1
    20    22    24    1
    21    24    25    1
    22    25    26    1
    23    26    27    1
    24    27    28    1
    25    28    29    1
    26    10     1   ar
    27    29    24    1
    28     9     4   ar
    29    16    11   ar
    30    17    20    1
    31    17    21    1
    32    22    23    1
@<TRIPOS>MOLECULE
*****
 29 32 0 0 0
SMALL
GASTEIGER

@<TRIPOS>ATOM
      1 C         140.4974  139.9747  168.7258 C.ar    1  UNL1        0.0853
      2 C         141.7742  139.6197  169.4286 C.ar    1  UNL1        0.1045
      3 N         142.9687  139.1780  168.6361 N.ar    1  UNL1       -0.2436
      4 C         142.8865  139.0914  167.1408 C.ar    1  UNL1        0.0825
      5 C         144.0810  138.6497  166.3484 C.ar    1  UNL1        0.0191
      6 C         143.9988  138.5631  164.8532 C.ar    1  UNL1        0.0016
      7 C         142.7220  138.9181  164.1504 C.ar    1  UNL1        0.0016
      8 C         141.5275  139.3597  164.9429 C.ar    1  UNL1        0.0028
      9 C         141.6098  139.4464  166.4381 C.ar    1  UNL1        0.0309
     10 C         140.4152  139.8880  167.2306 C.ar    1  UNL1        0.0519
     11 C         142.6398  138.8314  162.6551 C.ar    1  UNL1        0.0192
     12 C         143.8425  139.1520  161.8181 C.ar    1  UNL1        0.0031
     13 C         143.7603  139.0653  160.3228 C.ar    1  UNL1        0.0207
     14 C         142.4754  138.6580  159.6647 C.ar    1  UNL1        0.0989
     15 N         141.2727  138.3374  160.5018 N.ar    1  UNL1       -0.2423
     16 C         141.3549  138.4241  161.9970 C.ar    1  UNL1        0.0988
     17 N         139.3587  141.6866  170.3142 N.am    1  UNL1       -0.3252
     18 C         139.3029  140.4163  169.5184 C.2     1  UNL1        0.2455
     19 O         138.0525  139.5878  169.5150 O.2     1  UNL1       -0.2703
     20 H         138.5747  141.9765  170.8343 H       1  UNL1        0.1453
     21 H         140.1794  142.2304  170.3164 H       1  UNL1        0.1453
     22 N         139.1384  140.2430  166.5279 N.pl3   1  UNL1       -0.3337
     23 H         138.3496  139.6606  166.6161 H       1  UNL1        0.1468
     24 C         139.0636  141.4854  165.6907 C.3     1  UNL1        0.0740
     25 C         139.9580  142.6503  165.9955 C.3     1  UNL1        0.0516
     26 C         139.8831  143.8926  165.1583 C.3     1  UNL1        0.1439
     27 O         138.9138  143.9701  164.0163 O.3     1  UNL1       -0.3537
     28 C         138.0193  142.8053  163.7114 C.3     1  UNL1        0.1439
     29 C         138.0942  141.5629  164.5486 C.3     1  UNL1        0.0516
@<TRIPOS>BOND
     1    17    18   am
     2    18    19    2
     3    18     1    1
     4     1     2   ar
     5     2     3   ar
     6     3     4   ar
     7     4     5   ar
     8     5     6   ar
     9     6     7   ar
    10     7    11    1
    11    11    12   ar
    12    12    13   ar
    13    13    14   ar
    14    14    15   ar
    15    15    16   ar
    16     7     8   ar
    17     8     9   ar
    18     9    10   ar
    19    10    22    1
    20    22    24    1
    21    24    25    1
    22    25    26    1
    23    26    27    1
    24    27    28    1
    25    28    29    1
    26    10     1   ar
    27    29    24    1
    28     9     4   ar
    29    16    11   ar
    30    17    20    1
    31    17    21    1
    32    22    23    1
@<TRIPOS>MOLECULE
*****
 29 32 0 0 0
SMALL
GASTEIGER

@<TRIPOS>ATOM
      1 C         140.8958  141.3366  168.1589 C.ar    1  UNL1        0.0853
      2 C         142.2806  141.5049  168.7104 C.ar    1  UNL1        0.1045
      3 N         143.3496  142.1408  167.8721 N.ar    1  UNL1       -0.2436
      4 C         143.0339  142.6085  166.4822 C.ar    1  UNL1        0.0825
      5 C         144.1029  143.2444  165.6439 C.ar    1  UNL1        0.0191
      6 C         143.7871  143.7120  164.2541 C.ar    1  UNL1        0.0016
      7 C         142.4024  143.5437  163.7026 C.ar    1  UNL1        0.0016
      8 C         141.3334  142.9077  164.5409 C.ar    1  UNL1        0.0028
      9 C         141.6491  142.4401  165.9307 C.ar    1  UNL1        0.0309
     10 C         140.5801  141.8042  166.7691 C.ar    1  UNL1        0.0519
     11 C         142.0867  144.0113  162.3127 C.ar    1  UNL1        0.0192
     12 C         140.9402  144.9499  162.0795 C.ar    1  UNL1        0.0031
     13 C         140.6245  145.4176  160.6896 C.ar    1  UNL1        0.0207
     14 C         141.4554  144.9465  159.5330 C.ar    1  UNL1        0.0989
     15 N         142.6019  144.0078  159.7663 N.ar    1  UNL1       -0.2423
     16 C         142.9176  143.5403  161.1561 C.ar    1  UNL1        0.0988
     17 N         139.5056  141.2579  170.3524 N.am    1  UNL1       -0.3252
     18 C         139.8268  140.7006  168.9973 C.2     1  UNL1        0.2455
     19 O         139.0790  139.5075  168.4805 O.2     1  UNL1       -0.2703
     20 H         138.8040  140.8405  170.9026 H       1  UNL1        0.1453
     21 H         139.9965  142.0410  170.6915 H       1  UNL1        0.1453
     22 N         139.1954  141.6359  166.2176 N.pl3   1  UNL1       -0.3337
     23 H         138.4536  142.1742  166.5769 H       1  UNL1        0.1468
     24 C         138.9409  140.6472  165.1185 C.3     1  UNL1        0.0740
     25 C         138.0996  141.0367  163.9393 C.3     1  UNL1        0.0516
     26 C         137.8451  140.0480  162.8404 C.3     1  UNL1        0.1439
     27 O         138.4319  138.6699  162.9206 O.3     1  UNL1       -0.3537
     28 C         139.2732  138.2804  164.0997 C.3     1  UNL1        0.1439
     29 C         139.5277  139.2691  165.1987 C.3     1  UNL1        0.0516
@<TRIPOS>BOND
     1    17    18   am
     2    18    19    2
     3    18     1    1
     4     1     2   ar
     5     2     3   ar
     6     3     4   ar
     7     4     5   ar
     8     5     6   ar
     9     6     7   ar
    10     7    11    1
    11    11    12   ar
    12    12    13   ar
    13    13    14   ar
    14    14    15   ar
    15    15    16   ar
    16     7     8   ar
    17     8     9   ar
    18     9    10   ar
    19    10    22    1
    20    22    24    1
    21    24    25    1
    22    25    26    1
    23    26    27    1
    24    27    28    1
    25    28    29    1
    26    10     1   ar
    27    29    24    1
    28     9     4   ar
    29    16    11   ar
    30    17    20    1
    31    17    21    1
    32    22    23    1
@<TRIPOS>MOLECULE
*****
 29 32 0 0 0
SMALL
GASTEIGER

@<TRIPOS>ATOM
      1 C         142.5727  140.5652  168.0623 C.ar    1  UNL1        0.0853
      2 C         143.0675  141.9135  168.4953 C.ar    1  UNL1        0.1045
      3 N         143.6361  142.8641  167.4839 N.ar    1  UNL1       -0.2436
      4 C         143.7099  142.4665  166.0394 C.ar    1  UNL1        0.0825
      5 C         144.2785  143.4171  165.0280 C.ar    1  UNL1        0.0191
      6 C         144.3523  143.0195  163.5836 C.ar    1  UNL1        0.0016
      7 C         143.8576  141.6713  163.1505 C.ar    1  UNL1        0.0016
      8 C         143.2890  140.7207  164.1619 C.ar    1  UNL1        0.0028
      9 C         143.2152  141.1183  165.6064 C.ar    1  UNL1        0.0309
     10 C         142.6466  140.1676  166.6179 C.ar    1  UNL1        0.0519
     11 C         143.9314  141.2737  161.7060 C.ar    1  UNL1        0.0192
     12 C         143.9235  142.3260  160.6372 C.ar    1  UNL1        0.0031
     13 C         143.9973  141.9285  159.1926 C.ar    1  UNL1        0.0207
     14 C         144.0791  140.4785  158.8171 C.ar    1  UNL1        0.0989
     15 N         144.0871  139.4262  159.8860 N.ar    1  UNL1       -0.2423
     16 C         144.0132  139.8238  161.3305 C.ar    1  UNL1        0.0988
     17 N         142.9099  138.6717  169.8090 N.am    1  UNL1       -0.3252
     18 C         142.0041  139.6146  169.0738 C.2     1  UNL1        0.2455
     19 O         140.5298  139.6069  169.3500 O.2     1  UNL1       -0.2703
     20 H         142.5367  138.0477  170.4728 H       1  UNL1        0.1453
     21 H         143.8775  138.6767  169.6276 H       1  UNL1        0.1453
     22 N         142.1518  138.8194  166.1848 N.pl3   1  UNL1       -0.3337
     23 H         142.6437  138.0075  166.4456 H       1  UNL1        0.1468
     24 C         140.9075  138.7083  165.3544 C.3     1  UNL1        0.0740
     25 C         140.8546  137.7424  164.2081 C.3     1  UNL1        0.0516
     26 C         139.6104  137.6314  163.3778 C.3     1  UNL1        0.1439
     27 O         138.4190  138.4862  163.6938 O.3     1  UNL1       -0.3537
     28 C         138.4719  139.4521  164.8402 C.3     1  UNL1        0.1439
     29 C         139.7161  139.5632  165.6705 C.3     1  UNL1        0.0516
@<TRIPOS>BOND
     1    17    18   am
     2    18    19    2
     3    18     1    1
     4     1     2   ar
     5     2     3   ar
     6     3     4   ar
     7     4     5   ar
     8     5     6   ar
     9     6     7   ar
    10     7    11    1
    11    11    12   ar
    12    12    13   ar
    13    13    14   ar
    14    14    15   ar
    15    15    16   ar
    16     7     8   ar
    17     8     9   ar
    18     9    10   ar
    19    10    22    1
    20    22    24    1
    21    24    25    1
    22    25    26    1
    23    26    27    1
    24    27    28    1
    25    28    29    1
    26    10     1   ar
    27    29    24    1
    28     9     4   ar
    29    16    11   ar
    30    17    20    1
    31    17    21    1
    32    22    23    1
