@<TRIPOS>MOLECULE
*****
 34 37 0 0 0
SMALL
GASTEIGER

@<TRIPOS>ATOM
      1 C         140.4849  139.1132  163.0227 C.ar    1  UNL1        0.0522
      2 C         141.3548  139.8228  162.0279 C.ar    1  UNL1        0.0167
      3 C         141.1104  139.6476  160.5583 C.ar    1  UNL1        0.0505
      4 C         139.9959  138.7629  160.0837 C.ar    1  UNL1        0.0170
      5 C         139.1260  138.0533  161.0786 C.ar    1  UNL1        0.0307
      6 C         139.3705  138.2285  162.5481 C.ar    1  UNL1        0.1401
      7 F         138.5006  137.5189  163.5430 F       1  UNL1       -0.2044
      8 C         141.4363  137.9852  164.2642 C.3     1  UNL1        0.0601
      9 C         140.7293  139.2884  164.4923 C.3     1  UNL1        0.2163
     10 C         141.2194  139.0108  165.8827 C.3     1  UNL1        0.1608
     11 N         140.9175  139.9757  166.9908 N.ar    1  UNL1       -0.2991
     12 C         141.2655  139.9692  168.4498 C.ar    1  UNL1        0.1073
     13 C         140.6887  141.2075  169.0694 C.ar    1  UNL1        0.1681
     14 N         139.9842  141.9794  167.9932 N.ar    1  UNL1       -0.2097
     15 C         140.1256  141.2180  166.7086 C.ar    1  UNL1        0.2280
     16 C         139.6357  141.4955  165.3183 C.2     1  UNL1        0.3477
     17 N         138.8438  142.7378  165.0361 N.pl3   1  UNL1       -0.2439
     18 N         139.9375  140.5306  164.2102 N.2     1  UNL1       -0.0653
     19 H         138.6457  143.3711  165.7634 H       1  UNL1        0.2885
     20 H         138.5222  142.9199  164.1236 H       1  UNL1        0.2885
     21 C         140.7973  141.6044  170.5118 C.1     1  UNL1        0.1214
     22 N         140.9059  142.0013  171.9543 N.1     1  UNL1       -0.1892
     23 N         141.9803  140.3572  159.5635 N.am    1  UNL1       -0.2791
     24 C         143.3294  139.8014  159.2159 C.2     1  UNL1        0.2672
     25 O         143.8087  138.5359  159.8631 O.2     1  UNL1       -0.2682
     26 H         141.6658  141.1878  159.1388 H       1  UNL1        0.1552
     27 C         144.1994  140.5110  158.2211 C.ar    1  UNL1        0.1348
     28 C         144.6451  141.9187  158.4843 C.ar    1  UNL1        0.0245
     29 C         145.5151  142.6284  157.4895 C.ar    1  UNL1        0.0135
     30 C         145.9392  141.9302  156.2314 C.ar    1  UNL1        0.0876
     31 C         145.4933  140.5224  155.9683 C.ar    1  UNL1        0.1092
     32 N         144.6234  139.8127  156.9630 N.ar    1  UNL1       -0.2385
     33 C         146.8091  142.6399  155.2366 C.1     1  UNL1        0.1020
     34 N         147.6790  143.3495  154.2419 N.1     1  UNL1       -0.1908
@<TRIPOS>BOND
     1     9     8    1
     2     9     1    1
     3     1     2   ar
     4     2     3   ar
     5     3    23    1
     6    23    24   am
     7    24    25    2
     8    24    27    1
     9    27    28   ar
    10    28    29   ar
    11    29    30   ar
    12    30    33    1
    13    33    34    3
    14    30    31   ar
    15    31    32   ar
    16     3     4   ar
    17     4     5   ar
    18     5     6   ar
    19     6     7    1
    20     9    10    1
    21    10    11    1
    22    11    12   ar
    23    12    13   ar
    24    13    21    1
    25    21    22    3
    26    13    14   ar
    27    14    15   ar
    28    15    16    1
    29    16    17    1
    30    16    18    2
    31    18     9    1
    32     6     1   ar
    33    15    11   ar
    34    32    27   ar
    35    23    26    1
    36    17    19    1
    37    17    20    1
@<TRIPOS>MOLECULE
*****
 34 37 0 0 0
SMALL
GASTEIGER

@<TRIPOS>ATOM
      1 C         142.5371  137.1015  156.8706 C.ar    1  UNL1        0.0522
      2 C         142.3686  137.3512  158.3400 C.ar    1  UNL1        0.0167
      3 C         142.8272  138.6483  158.9378 C.ar    1  UNL1        0.0505
      4 C         143.4543  139.6956  158.0661 C.ar    1  UNL1        0.0170
      5 C         143.6229  139.4459  156.5966 C.ar    1  UNL1        0.0307
      6 C         143.1642  138.1488  155.9989 C.ar    1  UNL1        0.1401
      7 F         143.3328  137.8990  154.5295 F       1  UNL1       -0.2044
      8 C         141.1771  136.7589  155.5470 C.3     1  UNL1        0.0601
      9 C         142.0785  135.8044  156.2728 C.3     1  UNL1        0.2163
     10 C         141.3068  134.8389  155.4229 C.3     1  UNL1        0.1608
     11 N         141.5958  133.3693  155.5064 N.ar    1  UNL1       -0.2991
     12 C         141.0030  132.1880  154.7972 C.ar    1  UNL1        0.1073
     13 C         141.6973  130.9540  155.2922 C.ar    1  UNL1        0.1681
     14 N         142.7191  131.3726  156.3073 N.ar    1  UNL1       -0.2097
     15 C         142.6564  132.8654  156.4397 C.ar    1  UNL1        0.2280
     16 C         143.4281  133.8310  157.2895 C.2     1  UNL1        0.3477
     17 N         144.4887  133.3270  158.2229 N.pl3   1  UNL1       -0.2439
     18 N         143.1391  135.3005  157.2061 N.2     1  UNL1       -0.0653
     19 H         144.6784  132.3625  158.2777 H       1  UNL1        0.2885
     20 H         144.9952  133.9608  158.7806 H       1  UNL1        0.2885
     21 C         141.4186  129.5480  154.8497 C.1     1  UNL1        0.1214
     22 N         141.1399  128.1421  154.4073 N.1     1  UNL1       -0.1892
     23 N         142.6587  138.8980  160.4072 N.am    1  UNL1       -0.2791
     24 C         143.5306  138.1808  161.3948 C.2     1  UNL1        0.2672
     25 O         144.5712  137.2139  160.9129 O.2     1  UNL1       -0.2682
     26 H         141.9757  139.5327  160.7235 H       1  UNL1        0.1552
     27 C         143.3620  138.4306  162.8642 C.ar    1  UNL1        0.1348
     28 C         142.1259  137.9556  163.5687 C.ar    1  UNL1        0.0245
     29 C         141.9573  138.2054  165.0381 C.ar    1  UNL1        0.0135
     30 C         143.0249  138.9300  165.8030 C.ar    1  UNL1        0.0876
     31 C         144.2610  139.4049  165.0985 C.ar    1  UNL1        0.1092
     32 N         144.4297  139.1552  163.6291 N.ar    1  UNL1       -0.2385
     33 C         142.8563  139.1798  167.2725 C.1     1  UNL1        0.1020
     34 N         142.6877  139.4295  168.7419 N.1     1  UNL1       -0.1908
@<TRIPOS>BOND
     1     9     8    1
     2     9     1    1
     3     1     2   ar
     4     2     3   ar
     5     3    23    1
     6    23    24   am
     7    24    25    2
     8    24    27    1
     9    27    28   ar
    10    28    29   ar
    11    29    30   ar
    12    30    33    1
    13    33    34    3
    14    30    31   ar
    15    31    32   ar
    16     3     4   ar
    17     4     5   ar
    18     5     6   ar
    19     6     7    1
    20     9    10    1
    21    10    11    1
    22    11    12   ar
    23    12    13   ar
    24    13    21    1
    25    21    22    3
    26    13    14   ar
    27    14    15   ar
    28    15    16    1
    29    16    17    1
    30    16    18    2
    31    18     9    1
    32     6     1   ar
    33    15    11   ar
    34    32    27   ar
    35    23    26    1
    36    17    19    1
    37    17    20    1
@<TRIPOS>MOLECULE
*****
 34 37 0 0 0
SMALL
GASTEIGER

@<TRIPOS>ATOM
      1 C         143.5213  140.9073  162.5800 C.ar    1  UNL1        0.0522
      2 C         143.4456  139.8239  161.5454 C.ar    1  UNL1        0.0167
      3 C         143.7679  140.1310  160.1129 C.ar    1  UNL1        0.0505
      4 C         144.1658  141.5215  159.7152 C.ar    1  UNL1        0.0170
      5 C         144.2415  142.6049  160.7500 C.ar    1  UNL1        0.0307
      6 C         143.9192  142.2977  162.1824 C.ar    1  UNL1        0.1401
      7 F         143.9949  143.3811  163.2171 F       1  UNL1       -0.2044
      8 C         144.6253  140.1384  163.9616 C.3     1  UNL1        0.0601
      9 C         143.1990  140.6002  164.0125 C.3     1  UNL1        0.2163
     10 C         143.3721  140.1327  165.4273 C.3     1  UNL1        0.1608
     11 N         142.2309  140.2336  166.3955 N.ar    1  UNL1       -0.2991
     12 C         142.1055  139.8567  167.8419 C.ar    1  UNL1        0.1073
     13 C         140.7136  140.1922  168.2892 C.ar    1  UNL1        0.1681
     14 N         139.9788  140.7765  167.1193 N.ar    1  UNL1       -0.2097
     15 C         140.9165  140.8021  165.9489 C.ar    1  UNL1        0.2280
     16 C         140.7435  141.2695  164.5341 C.2     1  UNL1        0.3477
     17 N         139.4291  141.8379  164.0875 N.pl3   1  UNL1       -0.2439
     18 N         141.8847  141.1686  163.5660 N.2     1  UNL1       -0.0653
     19 H         138.6801  141.9042  164.7230 H       1  UNL1        0.2885
     20 H         139.3155  142.1447  163.1590 H       1  UNL1        0.2885
     21 C         140.1546  139.9806  169.6650 C.1     1  UNL1        0.1214
     22 N         139.5956  139.7690  171.0408 N.1     1  UNL1       -0.1892
     23 N         143.6922  139.0477  159.0783 N.am    1  UNL1       -0.2791
     24 C         142.4627  138.9041  158.2311 C.2     1  UNL1        0.2672
     25 O         141.3088  139.8439  158.4186 O.2     1  UNL1       -0.2682
     26 H         144.4495  138.4308  158.9552 H       1  UNL1        0.1552
     27 C         142.3870  137.8206  157.1965 C.ar    1  UNL1        0.1348
     28 C         141.0525  137.2986  156.7534 C.ar    1  UNL1        0.0245
     29 C         140.9768  136.2152  155.7188 C.ar    1  UNL1        0.0135
     30 C         142.2358  135.6539  155.1272 C.ar    1  UNL1        0.0876
     31 C         143.5703  136.1760  155.5703 C.ar    1  UNL1        0.1092
     32 N         143.6460  137.2593  156.6049 N.ar    1  UNL1       -0.2385
     33 C         142.1601  134.5704  154.0925 C.1     1  UNL1        0.1020
     34 N         142.0845  133.4871  153.0579 N.1     1  UNL1       -0.1908
@<TRIPOS>BOND
     1     9     8    1
     2     9     1    1
     3     1     2   ar
     4     2     3   ar
     5     3    23    1
     6    23    24   am
     7    24    25    2
     8    24    27    1
     9    27    28   ar
    10    28    29   ar
    11    29    30   ar
    12    30    33    1
    13    33    34    3
    14    30    31   ar
    15    31    32   ar
    16     3     4   ar
    17     4     5   ar
    18     5     6   ar
    19     6     7    1
    20     9    10    1
    21    10    11    1
    22    11    12   ar
    23    12    13   ar
    24    13    21    1
    25    21    22    3
    26    13    14   ar
    27    14    15   ar
    28    15    16    1
    29    16    17    1
    30    16    18    2
    31    18     9    1
    32     6     1   ar
    33    15    11   ar
    34    32    27   ar
    35    23    26    1
    36    17    19    1
    37    17    20    1
@<TRIPOS>MOLECULE
*****
 34 37 0 0 0
SMALL
GASTEIGER

@<TRIPOS>ATOM
      1 C         139.8994  141.0622  159.9704 C.ar    1  UNL1        0.0522
      2 C         139.9930  141.4032  161.4280 C.ar    1  UNL1        0.0167
      3 C         138.8973  140.9918  162.3664 C.ar    1  UNL1        0.0505
      4 C         137.7082  140.2393  161.8469 C.ar    1  UNL1        0.0170
      5 C         137.6147  139.8983  160.3891 C.ar    1  UNL1        0.0307
      6 C         138.7104  140.3098  159.4509 C.ar    1  UNL1        0.1401
      7 F         138.6168  139.9688  157.9931 F       1  UNL1       -0.2044
      8 C         140.0972  142.6706  158.9250 C.3     1  UNL1        0.0601
      9 C         140.9950  141.4736  159.0320 C.3     1  UNL1        0.2163
     10 C         141.7788  142.3009  158.0565 C.3     1  UNL1        0.1608
     11 N         143.0798  141.7882  157.5138 N.ar    1  UNL1       -0.2991
     12 C         144.0647  142.3749  156.5465 C.ar    1  UNL1        0.1073
     13 C         145.1906  141.3977  156.3815 C.ar    1  UNL1        0.1681
     14 N         144.9016  140.2070  157.2468 N.ar    1  UNL1       -0.2097
     15 C         143.5970  140.4484  157.9467 C.ar    1  UNL1        0.2280
     16 C         142.8133  139.6212  158.9221 C.2     1  UNL1        0.3477
     17 N         143.3305  138.2814  159.3550 N.pl3   1  UNL1       -0.2439
     18 N         141.5123  140.1339  159.4648 N.2     1  UNL1       -0.0653
     19 H         144.1844  137.9449  158.9988 H       1  UNL1        0.2885
     20 H         142.8161  137.7385  159.9952 H       1  UNL1        0.2885
     21 C         146.3943  141.5793  155.5050 C.1     1  UNL1        0.1214
     22 N         147.5980  141.7608  154.6285 N.1     1  UNL1       -0.1892
     23 N         138.9909  141.3328  163.8241 N.am    1  UNL1       -0.2791
     24 C         139.8831  140.5323  164.7259 C.2     1  UNL1        0.2672
     25 O         140.6818  139.3908  164.1700 O.2     1  UNL1       -0.2682
     26 H         138.4667  142.0820  164.1889 H       1  UNL1        0.1552
     27 C         139.9767  140.8734  166.1836 C.ar    1  UNL1        0.1348
     28 C         140.5906  142.1732  166.6118 C.ar    1  UNL1        0.0245
     29 C         140.6841  142.5143  168.0695 C.ar    1  UNL1        0.0135
     30 C         140.1637  141.5555  169.0990 C.ar    1  UNL1        0.0876
     31 C         139.5498  140.2556  168.6707 C.ar    1  UNL1        0.1092
     32 N         139.4562  139.9145  167.2131 N.ar    1  UNL1       -0.2385
     33 C         140.2573  141.8966  170.5568 C.1     1  UNL1        0.1020
     34 N         140.3508  142.2377  172.0144 N.1     1  UNL1       -0.1908
@<TRIPOS>BOND
     1     9     8    1
     2     9     1    1
     3     1     2   ar
     4     2     3   ar
     5     3    23    1
     6    23    24   am
     7    24    25    2
     8    24    27    1
     9    27    28   ar
    10    28    29   ar
    11    29    30   ar
    12    30    33    1
    13    33    34    3
    14    30    31   ar
    15    31    32   ar
    16     3     4   ar
    17     4     5   ar
    18     5     6   ar
    19     6     7    1
    20     9    10    1
    21    10    11    1
    22    11    12   ar
    23    12    13   ar
    24    13    21    1
    25    21    22    3
    26    13    14   ar
    27    14    15   ar
    28    15    16    1
    29    16    17    1
    30    16    18    2
    31    18     9    1
    32     6     1   ar
    33    15    11   ar
    34    32    27   ar
    35    23    26    1
    36    17    19    1
    37    17    20    1
@<TRIPOS>MOLECULE
*****
 34 37 0 0 0
SMALL
GASTEIGER

@<TRIPOS>ATOM
      1 C         139.3024  139.7899  160.0967 C.ar    1  UNL1        0.0522
      2 C         139.6787  138.5295  159.3759 C.ar    1  UNL1        0.0167
      3 C         140.0185  138.5734  157.9155 C.ar    1  UNL1        0.0505
      4 C         139.9819  139.8780  157.1760 C.ar    1  UNL1        0.0170
      5 C         139.6056  141.1385  157.8968 C.ar    1  UNL1        0.0307
      6 C         139.2659  141.0944  159.3572 C.ar    1  UNL1        0.1401
      7 F         138.8896  142.3549  160.0780 F       1  UNL1       -0.2044
      8 C         137.6075  139.4911  160.9666 C.3     1  UNL1        0.0601
      9 C         138.9627  139.7459  161.5571 C.3     1  UNL1        0.2163
     10 C         138.1522  139.6134  162.8124 C.3     1  UNL1        0.1608
     11 N         138.8149  139.7511  164.1509 N.ar    1  UNL1       -0.2991
     12 C         138.2785  139.6704  165.5494 C.ar    1  UNL1        0.1073
     13 C         139.4202  139.8907  166.4971 C.ar    1  UNL1        0.1681
     14 N         140.6621  140.1075  165.6843 N.ar    1  UNL1       -0.2097
     15 C         140.2880  140.0212  164.2343 C.ar    1  UNL1        0.2280
     16 C         141.0984  140.1537  162.9790 C.2     1  UNL1        0.3477
     17 N         142.5716  140.4238  163.0624 N.pl3   1  UNL1       -0.2439
     18 N         140.4357  140.0161  161.6404 N.2     1  UNL1       -0.0653
     19 H         143.0065  140.5142  163.9409 H       1  UNL1        0.2885
     20 H         143.1034  140.5108  162.2385 H       1  UNL1        0.2885
     21 C         139.3349  139.8937  167.9947 C.1     1  UNL1        0.1214
     22 N         139.2497  139.8966  169.4923 N.1     1  UNL1       -0.1892
     23 N         140.3948  137.3130  157.1948 N.am    1  UNL1       -0.2791
     24 C         141.8362  136.9120  157.0875 C.2     1  UNL1        0.2672
     25 O         142.9014  137.7716  157.7010 O.2     1  UNL1       -0.2682
     26 H         139.6957  136.7488  156.7921 H       1  UNL1        0.1552
     27 C         142.2125  135.6514  156.3667 C.ar    1  UNL1        0.1348
     28 C         141.4154  135.2003  155.1789 C.ar    1  UNL1        0.0245
     29 C         141.7916  133.9398  154.4581 C.ar    1  UNL1        0.0135
     30 C         142.9650  133.1304  154.9252 C.ar    1  UNL1        0.0876
     31 C         143.7621  133.5817  156.1131 C.ar    1  UNL1        0.1092
     32 N         143.3859  134.8422  156.8339 N.ar    1  UNL1       -0.2385
     33 C         143.3412  131.8699  154.2044 C.1     1  UNL1        0.1020
     34 N         143.7175  130.6094  153.4837 N.1     1  UNL1       -0.1908
@<TRIPOS>BOND
     1     9     8    1
     2     9     1    1
     3     1     2   ar
     4     2     3   ar
     5     3    23    1
     6    23    24   am
     7    24    25    2
     8    24    27    1
     9    27    28   ar
    10    28    29   ar
    11    29    30   ar
    12    30    33    1
    13    33    34    3
    14    30    31   ar
    15    31    32   ar
    16     3     4   ar
    17     4     5   ar
    18     5     6   ar
    19     6     7    1
    20     9    10    1
    21    10    11    1
    22    11    12   ar
    23    12    13   ar
    24    13    21    1
    25    21    22    3
    26    13    14   ar
    27    14    15   ar
    28    15    16    1
    29    16    17    1
    30    16    18    2
    31    18     9    1
    32     6     1   ar
    33    15    11   ar
    34    32    27   ar
    35    23    26    1
    36    17    19    1
    37    17    20    1
@<TRIPOS>MOLECULE
*****
 34 37 0 0 0
SMALL
GASTEIGER

@<TRIPOS>ATOM
      1 C         140.1970  139.7809  162.8537 C.ar    1  UNL1        0.0522
      2 C         141.0723  140.3773  161.7917 C.ar    1  UNL1        0.0167
      3 C         141.0850  139.7883  160.4122 C.ar    1  UNL1        0.0505
      4 C         140.2224  138.6029  160.0949 C.ar    1  UNL1        0.0170
      5 C         139.3471  138.0065  161.1571 C.ar    1  UNL1        0.0307
      6 C         139.3344  138.5956  162.5365 C.ar    1  UNL1        0.1401
      7 F         138.4591  137.9992  163.5987 F       1  UNL1       -0.2044
      8 C         139.1097  141.1943  163.5881 C.3     1  UNL1        0.0601
      9 C         140.1842  140.3700  164.2333 C.3     1  UNL1        0.2163
     10 C         139.7983  141.2453  165.3887 C.3     1  UNL1        0.1608
     11 N         140.4912  141.0918  166.7101 N.ar    1  UNL1       -0.2991
     12 C         140.3264  141.8060  168.0188 C.ar    1  UNL1        0.1073
     13 C         141.3034  141.2187  168.9936 C.ar    1  UNL1        0.1681
     14 N         142.0721  140.1414  168.2875 N.ar    1  UNL1       -0.2097
     15 C         141.5701  140.0630  166.8761 C.ar    1  UNL1        0.2280
     16 C         141.9560  139.1877  165.7208 C.2     1  UNL1        0.3477
     17 N         143.0349  138.1589  165.8868 N.pl3   1  UNL1       -0.2439
     18 N         141.2631  139.3412  164.3993 N.2     1  UNL1       -0.0653
     19 H         143.4897  138.0581  166.7541 H       1  UNL1        0.2885
     20 H         143.2882  137.5844  165.1285 H       1  UNL1        0.2885
     21 C         141.4807  141.6354  170.4237 C.1     1  UNL1        0.1214
     22 N         141.6580  142.0521  171.8537 N.1     1  UNL1       -0.1892
     23 N         141.9603  140.3847  159.3501 N.am    1  UNL1       -0.2791
     24 C         143.3937  139.9583  159.2326 C.2     1  UNL1        0.2672
     25 O         143.9517  138.9355  160.1772 O.2     1  UNL1       -0.2682
     26 H         141.5941  141.0560  158.7301 H       1  UNL1        0.1552
     27 C         144.2690  140.5548  158.1704 C.ar    1  UNL1        0.1348
     28 C         144.8751  141.9118  158.3729 C.ar    1  UNL1        0.0245
     29 C         145.7504  142.5082  157.3107 C.ar    1  UNL1        0.0135
     30 C         146.0195  141.7476  156.0462 C.ar    1  UNL1        0.0876
     31 C         145.4134  140.3905  155.8439 C.ar    1  UNL1        0.1092
     32 N         144.5381  139.7941  156.9059 N.ar    1  UNL1       -0.2385
     33 C         146.8949  142.3441  154.9841 C.1     1  UNL1        0.1020
     34 N         147.7701  142.9405  153.9220 N.1     1  UNL1       -0.1908
@<TRIPOS>BOND
     1     9     8    1
     2     9     1    1
     3     1     2   ar
     4     2     3   ar
     5     3    23    1
     6    23    24   am
     7    24    25    2
     8    24    27    1
     9    27    28   ar
    10    28    29   ar
    11    29    30   ar
    12    30    33    1
    13    33    34    3
    14    30    31   ar
    15    31    32   ar
    16     3     4   ar
    17     4     5   ar
    18     5     6   ar
    19     6     7    1
    20     9    10    1
    21    10    11    1
    22    11    12   ar
    23    12    13   ar
    24    13    21    1
    25    21    22    3
    26    13    14   ar
    27    14    15   ar
    28    15    16    1
    29    16    17    1
    30    16    18    2
    31    18     9    1
    32     6     1   ar
    33    15    11   ar
    34    32    27   ar
    35    23    26    1
    36    17    19    1
    37    17    20    1
@<TRIPOS>MOLECULE
*****
 34 37 0 0 0
SMALL
GASTEIGER

@<TRIPOS>ATOM
      1 C         140.4150  138.9658  163.5143 C.ar    1  UNL1        0.0522
      2 C         141.0871  139.2674  162.2077 C.ar    1  UNL1        0.0167
      3 C         140.4706  138.8014  160.9220 C.ar    1  UNL1        0.0505
      4 C         139.1820  138.0339  160.9432 C.ar    1  UNL1        0.0170
      5 C         138.5099  137.7323  162.2499 C.ar    1  UNL1        0.0307
      6 C         139.1265  138.1983  163.5355 C.ar    1  UNL1        0.1401
      7 F         138.4545  137.8968  164.8422 F       1  UNL1       -0.2044
      8 C         141.7180  138.1068  164.6471 C.3     1  UNL1        0.0601
      9 C         141.0316  139.4318  164.8000 C.3     1  UNL1        0.2163
     10 C         141.8865  139.4375  166.0325 C.3     1  UNL1        0.1608
     11 N         141.8409  140.6064  166.9714 N.ar    1  UNL1       -0.2991
     12 C         142.5636  140.8919  168.2545 C.ar    1  UNL1        0.1073
     13 C         142.1097  142.2316  168.7538 C.ar    1  UNL1        0.1681
     14 N         141.1065  142.7740  167.7794 N.ar    1  UNL1       -0.2097
     15 C         140.9404  141.7695  166.6778 C.ar    1  UNL1        0.2280
     16 C         140.0855  141.7637  165.4453 C.2     1  UNL1        0.3477
     17 N         139.1850  142.9269  165.1517 N.pl3   1  UNL1       -0.2439
     18 N         140.1311  140.5948  164.5064 N.2     1  UNL1       -0.0653
     19 H         139.1550  143.6941  165.7679 H       1  UNL1        0.2885
     20 H         138.6239  142.9231  164.3427 H       1  UNL1        0.2885
     21 C         142.5770  142.9098  170.0075 C.1     1  UNL1        0.1214
     22 N         143.0442  143.5880  171.2612 N.1     1  UNL1       -0.1892
     23 N         141.1426  139.1030  159.6154 N.am    1  UNL1       -0.2791
     24 C         142.3737  138.3463  159.2129 C.2     1  UNL1        0.2672
     25 O         142.9327  137.2881  160.1171 O.2     1  UNL1       -0.2682
     26 H         140.7757  139.7975  159.0220 H       1  UNL1        0.1552
     27 C         143.0458  138.6480  157.9062 C.ar    1  UNL1        0.1348
     28 C         142.8865  137.7097  156.7469 C.ar    1  UNL1        0.0245
     29 C         143.5586  138.0114  155.4402 C.ar    1  UNL1        0.0135
     30 C         144.3899  139.2512  155.2930 C.ar    1  UNL1        0.0876
     31 C         144.5491  140.1894  156.4525 C.ar    1  UNL1        0.1092
     32 N         143.8771  139.8879  157.7591 N.ar    1  UNL1       -0.2385
     33 C         145.0619  139.5528  153.9863 C.1     1  UNL1        0.1020
     34 N         145.7340  139.8545  152.6797 N.1     1  UNL1       -0.1908
@<TRIPOS>BOND
     1     9     8    1
     2     9     1    1
     3     1     2   ar
     4     2     3   ar
     5     3    23    1
     6    23    24   am
     7    24    25    2
     8    24    27    1
     9    27    28   ar
    10    28    29   ar
    11    29    30   ar
    12    30    33    1
    13    33    34    3
    14    30    31   ar
    15    31    32   ar
    16     3     4   ar
    17     4     5   ar
    18     5     6   ar
    19     6     7    1
    20     9    10    1
    21    10    11    1
    22    11    12   ar
    23    12    13   ar
    24    13    21    1
    25    21    22    3
    26    13    14   ar
    27    14    15   ar
    28    15    16    1
    29    16    17    1
    30    16    18    2
    31    18     9    1
    32     6     1   ar
    33    15    11   ar
    34    32    27   ar
    35    23    26    1
    36    17    19    1
    37    17    20    1
@<TRIPOS>MOLECULE
*****
 34 37 0 0 0
SMALL
GASTEIGER

@<TRIPOS>ATOM
      1 C         139.8730  142.5992  162.6712 C.ar    1  UNL1        0.0522
      2 C         141.0387  142.3349  161.7650 C.ar    1  UNL1        0.0167
      3 C         140.8262  142.2169  160.2848 C.ar    1  UNL1        0.0505
      4 C         139.4481  142.3631  159.7109 C.ar    1  UNL1        0.0170
      5 C         138.2824  142.6273  160.6172 C.ar    1  UNL1        0.0307
      6 C         138.4949  142.7454  162.0974 C.ar    1  UNL1        0.1401
      7 F         137.3292  143.0096  163.0037 F       1  UNL1       -0.2044
      8 C         140.4295  144.1142  163.7267 C.3     1  UNL1        0.0601
      9 C         140.0854  142.7172  164.1515 C.3     1  UNL1        0.2163
     10 C         140.4173  143.3205  165.4842 C.3     1  UNL1        0.1608
     11 N         140.3314  142.4859  166.7275 N.ar    1  UNL1       -0.2991
     12 C         140.5956  142.8032  168.1696 C.ar    1  UNL1        0.1073
     13 C         140.3411  141.5613  168.9715 C.ar    1  UNL1        0.1681
     14 N         139.9196  140.4766  168.0251 N.ar    1  UNL1       -0.2097
     15 C         139.9137  141.0480  166.6382 C.ar    1  UNL1        0.2280
     16 C         139.5818  140.4448  165.3056 C.2     1  UNL1        0.3477
     17 N         139.1640  139.0069  165.2162 N.pl3   1  UNL1       -0.2439
     18 N         139.6677  141.2795  164.0622 N.2     1  UNL1       -0.0653
     19 H         139.1076  138.4591  166.0323 H       1  UNL1        0.2885
     20 H         138.9461  138.6110  164.3416 H       1  UNL1        0.2885
     21 C         140.4832  141.4277  170.4588 C.1     1  UNL1        0.1214
     22 N         140.6252  141.2941  171.9460 N.1     1  UNL1       -0.1892
     23 N         141.9919  141.9526  159.3786 N.am    1  UNL1       -0.2791
     24 C         142.7619  143.0991  158.7931 C.2     1  UNL1        0.2672
     25 O         142.3661  144.5099  159.1139 O.2     1  UNL1       -0.2682
     26 H         142.2517  141.0267  159.1680 H       1  UNL1        0.1552
     27 C         143.9276  142.8348  157.8868 C.ar    1  UNL1        0.1348
     28 C         143.7012  142.5997  156.4229 C.ar    1  UNL1        0.0245
     29 C         144.8669  142.3354  155.5166 C.ar    1  UNL1        0.0135
     30 C         146.2590  142.3062  156.0744 C.ar    1  UNL1        0.0876
     31 C         146.4853  142.5413  157.5385 C.ar    1  UNL1        0.1092
     32 N         145.3197  142.8056  158.4447 N.ar    1  UNL1       -0.2385
     33 C         147.4247  142.0419  155.1682 C.1     1  UNL1        0.1020
     34 N         148.5904  141.7777  154.2620 N.1     1  UNL1       -0.1908
@<TRIPOS>BOND
     1     9     8    1
     2     9     1    1
     3     1     2   ar
     4     2     3   ar
     5     3    23    1
     6    23    24   am
     7    24    25    2
     8    24    27    1
     9    27    28   ar
    10    28    29   ar
    11    29    30   ar
    12    30    33    1
    13    33    34    3
    14    30    31   ar
    15    31    32   ar
    16     3     4   ar
    17     4     5   ar
    18     5     6   ar
    19     6     7    1
    20     9    10    1
    21    10    11    1
    22    11    12   ar
    23    12    13   ar
    24    13    21    1
    25    21    22    3
    26    13    14   ar
    27    14    15   ar
    28    15    16    1
    29    16    17    1
    30    16    18    2
    31    18     9    1
    32     6     1   ar
    33    15    11   ar
    34    32    27   ar
    35    23    26    1
    36    17    19    1
    37    17    20    1
@<TRIPOS>MOLECULE
*****
 34 37 0 0 0
SMALL
GASTEIGER

@<TRIPOS>ATOM
      1 C         139.4369  139.7446  162.8574 C.ar    1  UNL1        0.0522
      2 C         139.7103  140.7972  161.8244 C.ar    1  UNL1        0.0167
      3 C         139.6328  140.4549  160.3660 C.ar    1  UNL1        0.0505
      4 C         139.2819  139.0599  159.9407 C.ar    1  UNL1        0.0170
      5 C         139.0084  138.0072  160.9738 C.ar    1  UNL1        0.0307
      6 C         139.0860  138.3497  162.4322 C.ar    1  UNL1        0.1401
      7 F         138.8125  137.2970  163.4653 F       1  UNL1       -0.2044
      8 C         138.1332  140.5828  164.0049 C.3     1  UNL1        0.0601
      9 C         139.5144  140.0869  164.3158 C.3     1  UNL1        0.2163
     10 C         139.1121  140.6015  165.6662 C.3     1  UNL1        0.1608
     11 N         140.0642  140.5012  166.8210 N.ar    1  UNL1       -0.2991
     12 C         139.9476  140.9187  168.2570 C.ar    1  UNL1        0.1073
     13 C         141.2297  140.5620  168.9490 C.ar    1  UNL1        0.1681
     14 N         142.1388  139.9240  167.9406 N.ar    1  UNL1       -0.2097
     15 C         141.4184  139.8865  166.6255 C.ar    1  UNL1        0.2280
     16 C         141.8206  139.3720  165.2751 C.2     1  UNL1        0.3477
     17 N         143.1748  138.7572  165.0795 N.pl3   1  UNL1       -0.2439
     18 N         140.8685  139.4722  164.1203 N.2     1  UNL1       -0.0653
     19 H         143.7996  138.6915  165.8375 H       1  UNL1        0.2885
     20 H         143.4387  138.4195  164.1932 H       1  UNL1        0.2885
     21 C         141.5472  140.8012  170.3954 C.1     1  UNL1        0.1214
     22 N         141.8647  141.0403  171.8417 N.1     1  UNL1       -0.1892
     23 N         139.9062  141.5075  159.3330 N.am    1  UNL1       -0.2791
     24 C         139.1399  142.7968  159.3548 C.2     1  UNL1        0.2672
     25 O         138.1000  143.0334  160.4096 O.2     1  UNL1       -0.2682
     26 H         140.5887  141.3522  158.6407 H       1  UNL1        0.1552
     27 C         139.4133  143.8495  158.3217 C.ar    1  UNL1        0.1348
     28 C         139.1105  143.5796  156.8777 C.ar    1  UNL1        0.0245
     29 C         139.3840  144.6323  155.8447 C.ar    1  UNL1        0.0135
     30 C         139.9603  145.9547  156.2557 C.ar    1  UNL1        0.0876
     31 C         140.2631  146.2245  157.6999 C.ar    1  UNL1        0.1092
     32 N         139.9897  145.1719  158.7329 N.ar    1  UNL1       -0.2385
     33 C         140.2338  147.0074  155.2227 C.1     1  UNL1        0.1020
     34 N         140.5072  148.0600  154.1897 N.1     1  UNL1       -0.1908
@<TRIPOS>BOND
     1     9     8    1
     2     9     1    1
     3     1     2   ar
     4     2     3   ar
     5     3    23    1
     6    23    24   am
     7    24    25    2
     8    24    27    1
     9    27    28   ar
    10    28    29   ar
    11    29    30   ar
    12    30    33    1
    13    33    34    3
    14    30    31   ar
    15    31    32   ar
    16     3     4   ar
    17     4     5   ar
    18     5     6   ar
    19     6     7    1
    20     9    10    1
    21    10    11    1
    22    11    12   ar
    23    12    13   ar
    24    13    21    1
    25    21    22    3
    26    13    14   ar
    27    14    15   ar
    28    15    16    1
    29    16    17    1
    30    16    18    2
    31    18     9    1
    32     6     1   ar
    33    15    11   ar
    34    32    27   ar
    35    23    26    1
    36    17    19    1
    37    17    20    1
