@<TRIPOS>MOLECULE
*****
 29 31 0 0 0
SMALL
GASTEIGER

@<TRIPOS>ATOM
      1 N         143.2279  139.4250  158.5618 N.4     1  UNL1        0.3087
      2 C         142.5731  138.6570  157.4521 C.3     1  UNL1        0.1712
      3 C         142.6603  138.3440  159.4330 C.3     1  UNL1        0.1430
      4 C         143.0543  138.6362  160.8505 C.ar    1  UNL1        0.0651
      5 S         142.9470  138.1487  162.2650 S.2     1  UNL1       -0.0707
      6 C         143.6919  139.1091  163.1440 C.ar    1  UNL1        0.0860
      7 C         144.2595  140.1902  162.2729 C.ar    1  UNL1        0.0747
      8 C         143.8655  139.8979  160.8554 C.ar    1  UNL1        0.0464
      9 C         143.9728  140.3854  159.4409 C.3     1  UNL1        0.1372
     10 N         143.8426  139.0065  164.6329 N.am    1  UNL1       -0.2629
     11 C         142.9758  139.8356  165.5334 C.2     1  UNL1        0.3085
     12 O         141.9581  140.7675  164.9451 O.2     1  UNL1       -0.2521
     13 N         143.1265  139.7330  167.0223 N.am    1  UNL1       -0.2680
     14 H         144.5105  138.3949  165.0190 H       1  UNL1        0.1569
     15 H         143.7944  139.1214  167.4085 H       1  UNL1        0.1564
     16 C         142.2596  140.5622  167.9229 C.ar    1  UNL1        0.0516
     17 C         140.8801  140.0917  168.2774 C.ar    1  UNL1        0.0156
     18 C         140.0132  140.9209  169.1779 C.ar    1  UNL1        0.0127
     19 C         140.5258  142.2206  169.7239 C.ar    1  UNL1        0.0578
     20 CL        139.6589  143.0498  170.6244 Cl      1  UNL1       -0.0822
     21 C         141.9053  142.6910  169.3694 C.ar    1  UNL1        0.0127
     22 C         142.7722  141.8619  168.4689 C.ar    1  UNL1        0.0156
     23 C         145.0776  141.3585  162.7376 C.2     1  UNL1        0.2444
     24 N         145.1198  142.6164  161.9216 N.am    1  UNL1       -0.3253
     25 O         145.8535  141.2688  164.0182 O.2     1  UNL1       -0.2703
     26 H         144.6105  142.6753  161.0811 H       1  UNL1        0.1453
     27 H         145.6567  143.3832  162.2266 H       1  UNL1        0.1453
     28 C         144.5494  141.5138  157.7615 C.3     1  UNL1        0.0671
     29 C         143.6587  140.3456  157.4586 C.3     1  UNL1        0.1097
@<TRIPOS>UNITY_ATOM_ATTR
1 1
charge 1
@<TRIPOS>BOND
     1    28    29    1
     2    29     1    1
     3     1     2    1
     4     1     3    1
     5     3     4    1
     6     4     5   ar
     7     5     6   ar
     8     6    10    1
     9    10    11   am
    10    11    12    2
    11    11    13   am
    12    13    16    1
    13    16    17   ar
    14    17    18   ar
    15    18    19   ar
    16    19    20    1
    17    19    21   ar
    18    21    22   ar
    19     6     7   ar
    20     7    23    1
    21    23    24   am
    22    23    25    2
    23     7     8   ar
    24     8     9    1
    25     9     1    1
    26     8     4   ar
    27    22    16   ar
    28    10    14    1
    29    13    15    1
    30    24    26    1
    31    24    27    1
@<TRIPOS>MOLECULE
*****
 29 31 0 0 0
SMALL
GASTEIGER

@<TRIPOS>ATOM
      1 N         141.4494  141.4143  167.4526 N.4     1  UNL1        0.3087
      2 C         142.3090  140.4502  168.2151 C.3     1  UNL1        0.1712
      3 C         142.6774  141.6001  166.6115 C.3     1  UNL1        0.1430
      4 C         142.3575  142.5981  165.5382 C.ar    1  UNL1        0.0651
      5 S         142.9188  143.3297  164.3551 S.2     1  UNL1       -0.0707
      6 C         141.8399  144.2127  163.8018 C.ar    1  UNL1        0.0860
      7 C         140.6120  144.0270  164.6428 C.ar    1  UNL1        0.0747
      8 C         140.9318  143.0290  165.7160 C.ar    1  UNL1        0.0464
      9 C         140.3706  142.2974  166.8992 C.3     1  UNL1        0.1372
     10 N         141.9669  145.1220  162.6155 N.am    1  UNL1       -0.2629
     11 C         141.6733  144.6041  161.2388 C.2     1  UNL1        0.3085
     12 O         141.2528  143.1769  161.0482 O.2     1  UNL1       -0.2521
     13 N         141.8002  145.5134  160.0525 N.am    1  UNL1       -0.2680
     14 H         142.2428  146.0587  162.7406 H       1  UNL1        0.1569
     15 H         142.0762  146.4501  160.1776 H       1  UNL1        0.1564
     16 C         141.5066  144.9954  158.6757 C.ar    1  UNL1        0.0516
     17 C         142.5943  144.3498  157.8695 C.ar    1  UNL1        0.0156
     18 C         142.3007  143.8318  156.4927 C.ar    1  UNL1        0.0127
     19 C         140.9193  143.9595  155.9221 C.ar    1  UNL1        0.0578
     20 CL        140.6257  143.4416  154.5454 Cl      1  UNL1       -0.0822
     21 C         139.8316  144.6051  156.7284 C.ar    1  UNL1        0.0127
     22 C         140.1252  145.1231  158.1052 C.ar    1  UNL1        0.0156
     23 C         139.2952  144.7178  164.4454 C.2     1  UNL1        0.2444
     24 N         138.4616  145.0969  165.6334 N.am    1  UNL1       -0.3253
     25 O         138.8121  145.0295  163.0599 O.2     1  UNL1       -0.2703
     26 H         138.7787  144.8924  166.5427 H       1  UNL1        0.1453
     27 H         137.5974  145.5504  165.5038 H       1  UNL1        0.1453
     28 C         139.4073  139.9537  168.1207 C.3     1  UNL1        0.0671
     29 C         140.4011  141.0270  168.4531 C.3     1  UNL1        0.1097
@<TRIPOS>UNITY_ATOM_ATTR
1 1
charge 1
@<TRIPOS>BOND
     1    28    29    1
     2    29     1    1
     3     1     2    1
     4     1     3    1
     5     3     4    1
     6     4     5   ar
     7     5     6   ar
     8     6    10    1
     9    10    11   am
    10    11    12    2
    11    11    13   am
    12    13    16    1
    13    16    17   ar
    14    17    18   ar
    15    18    19   ar
    16    19    20    1
    17    19    21   ar
    18    21    22   ar
    19     6     7   ar
    20     7    23    1
    21    23    24   am
    22    23    25    2
    23     7     8   ar
    24     8     9    1
    25     9     1    1
    26     8     4   ar
    27    22    16   ar
    28    10    14    1
    29    13    15    1
    30    24    26    1
    31    24    27    1
@<TRIPOS>MOLECULE
*****
 29 31 0 0 0
SMALL
GASTEIGER

@<TRIPOS>ATOM
      1 N         141.1637  144.6135  158.6389 N.4     1  UNL1        0.3087
      2 C         142.2455  144.9810  157.6670 C.3     1  UNL1        0.1712
      3 C         142.0878  143.4886  159.0003 C.3     1  UNL1        0.1430
      4 C         141.4312  142.6772  160.0775 C.ar    1  UNL1        0.0651
      5 S         141.5965  141.4805  160.9667 S.2     1  UNL1       -0.0707
      6 C         140.3688  141.3643  161.8205 C.ar    1  UNL1        0.0860
      7 C         139.4447  142.4891  161.4592 C.ar    1  UNL1        0.0747
      8 C         140.1013  143.3006  160.3819 C.ar    1  UNL1        0.0464
      9 C         139.9360  144.4973  159.4928 C.3     1  UNL1        0.1372
     10 N         140.1106  140.3086  162.8543 N.am    1  UNL1       -0.2629
     11 C         140.5008  140.5464  164.2829 C.2     1  UNL1        0.3085
     12 O         141.1494  141.8401  164.6779 O.2     1  UNL1       -0.2521
     13 N         140.2425  139.4907  165.3167 N.am    1  UNL1       -0.2680
     14 H         139.6849  139.4595  162.5951 H       1  UNL1        0.1569
     15 H         139.8169  138.6416  165.0575 H       1  UNL1        0.1564
     16 C         140.6328  139.7286  166.7454 C.ar    1  UNL1        0.0516
     17 C         142.0716  139.6259  167.1569 C.ar    1  UNL1        0.0156
     18 C         142.4619  139.8638  168.5856 C.ar    1  UNL1        0.0127
     19 C         141.4134  140.2044  169.6028 C.ar    1  UNL1        0.0578
     20 CL        141.8036  140.4423  171.0314 Cl      1  UNL1       -0.0822
     21 C         139.9746  140.3071  169.1912 C.ar    1  UNL1        0.0127
     22 C         139.5843  140.0692  167.7626 C.ar    1  UNL1        0.0156
     23 C         138.1001  142.7558  162.0681 C.2     1  UNL1        0.2444
     24 N         137.6626  144.1661  162.3319 N.am    1  UNL1       -0.3253
     25 O         137.1929  141.6122  162.4132 O.2     1  UNL1       -0.2703
     26 H         138.2580  144.9167  162.1054 H       1  UNL1        0.1453
     27 H         136.7800  144.3411  162.7316 H       1  UNL1        0.1453
     28 C         140.5789  146.1302  156.6121 C.3     1  UNL1        0.0671
     29 C         140.4657  145.8152  158.0743 C.3     1  UNL1        0.1097
@<TRIPOS>UNITY_ATOM_ATTR
1 1
charge 1
@<TRIPOS>BOND
     1    28    29    1
     2    29     1    1
     3     1     2    1
     4     1     3    1
     5     3     4    1
     6     4     5   ar
     7     5     6   ar
     8     6    10    1
     9    10    11   am
    10    11    12    2
    11    11    13   am
    12    13    16    1
    13    16    17   ar
    14    17    18   ar
    15    18    19   ar
    16    19    20    1
    17    19    21   ar
    18    21    22   ar
    19     6     7   ar
    20     7    23    1
    21    23    24   am
    22    23    25    2
    23     7     8   ar
    24     8     9    1
    25     9     1    1
    26     8     4   ar
    27    22    16   ar
    28    10    14    1
    29    13    15    1
    30    24    26    1
    31    24    27    1
@<TRIPOS>MOLECULE
*****
 29 31 0 0 0
SMALL
GASTEIGER

@<TRIPOS>ATOM
      1 N         138.9920  139.5549  158.9816 N.4     1  UNL1        0.3087
      2 C         138.1922  140.2627  157.9282 C.3     1  UNL1        0.1712
      3 C         138.0285  140.2073  159.9282 C.3     1  UNL1        0.1430
      4 C         138.3992  139.7973  161.3226 C.ar    1  UNL1        0.0651
      5 S         138.0328  139.9470  162.7695 S.2     1  UNL1       -0.0707
      6 C         138.9990  139.1338  163.5788 C.ar    1  UNL1        0.0860
      7 C         139.9625  138.4815  162.6323 C.ar    1  UNL1        0.0747
      8 C         139.5918  138.8915  161.2378 C.ar    1  UNL1        0.0464
      9 C         139.9581  138.7417  159.7910 C.3     1  UNL1        0.1372
     10 N         139.0013  138.9970  165.0726 N.am    1  UNL1       -0.2629
     11 C         139.8597  139.9007  165.9071 C.2     1  UNL1        0.3085
     12 O         140.7158  140.9412  165.2480 O.2     1  UNL1       -0.2521
     13 N         139.8620  139.7639  167.4009 N.am    1  UNL1       -0.2680
     14 H         138.4394  138.3141  165.5052 H       1  UNL1        0.1569
     15 H         139.3001  139.0810  167.8335 H       1  UNL1        0.1564
     16 C         140.7204  140.6676  168.2355 C.ar    1  UNL1        0.0516
     17 C         140.2554  142.0568  168.5575 C.ar    1  UNL1        0.0156
     18 C         141.1138  142.9605  169.3921 C.ar    1  UNL1        0.0127
     19 C         142.4372  142.4749  169.9046 C.ar    1  UNL1        0.0578
     20 CL        143.2957  143.3786  170.7392 Cl      1  UNL1       -0.0822
     21 C         142.9023  141.0856  169.5825 C.ar    1  UNL1        0.0127
     22 C         142.0439  140.1820  168.7480 C.ar    1  UNL1        0.0156
     23 C         141.0975  137.5777  163.0132 C.2     1  UNL1        0.2444
     24 N         142.2258  137.3450  162.0526 N.am    1  UNL1       -0.3253
     25 O         141.1041  136.9067  164.3547 O.2     1  UNL1       -0.2703
     26 H         142.2214  137.7854  161.1722 H       1  UNL1        0.1453
     27 H         142.9707  136.7518  162.3027 H       1  UNL1        0.1453
     28 C         140.9934  139.8100  157.3447 C.3     1  UNL1        0.0671
     29 C         139.7883  139.0505  157.8148 C.3     1  UNL1        0.1097
@<TRIPOS>UNITY_ATOM_ATTR
1 1
charge 1
@<TRIPOS>BOND
     1    28    29    1
     2    29     1    1
     3     1     2    1
     4     1     3    1
     5     3     4    1
     6     4     5   ar
     7     5     6   ar
     8     6    10    1
     9    10    11   am
    10    11    12    2
    11    11    13   am
    12    13    16    1
    13    16    17   ar
    14    17    18   ar
    15    18    19   ar
    16    19    20    1
    17    19    21   ar
    18    21    22   ar
    19     6     7   ar
    20     7    23    1
    21    23    24   am
    22    23    25    2
    23     7     8   ar
    24     8     9    1
    25     9     1    1
    26     8     4   ar
    27    22    16   ar
    28    10    14    1
    29    13    15    1
    30    24    26    1
    31    24    27    1
@<TRIPOS>MOLECULE
*****
 29 31 0 0 0
SMALL
GASTEIGER

@<TRIPOS>ATOM
      1 N         144.2555  142.8024  162.7362 N.4     1  UNL1        0.3087
      2 C         145.3856  141.8284  162.8918 C.3     1  UNL1        0.1712
      3 C         144.0972  142.1621  161.3890 C.3     1  UNL1        0.1430
      4 C         142.9517  142.8316  160.6893 C.ar    1  UNL1        0.0651
      5 S         142.1459  142.8497  159.4242 S.2     1  UNL1       -0.0707
      6 C         141.0984  143.9150  159.5571 C.ar    1  UNL1        0.0860
      7 C         141.2567  144.5553  160.9042 C.ar    1  UNL1        0.0747
      8 C         142.4021  143.8858  161.6040 C.ar    1  UNL1        0.0464
      9 C         143.2079  143.8677  162.8691 C.3     1  UNL1        0.1372
     10 N         140.0726  144.2765  158.5241 N.am    1  UNL1       -0.2629
     11 C         140.3709  145.3424  157.5119 C.2     1  UNL1        0.3085
     12 O         141.6950  146.0470  157.5325 O.2     1  UNL1       -0.2521
     13 N         139.3450  145.7039  156.4789 N.am    1  UNL1       -0.2680
     14 H         139.2035  143.8141  158.5106 H       1  UNL1        0.1569
     15 H         138.4760  145.2416  156.4653 H       1  UNL1        0.1564
     16 C         139.6434  146.7699  155.4666 C.ar    1  UNL1        0.0516
     17 C         139.0825  148.1499  155.6431 C.ar    1  UNL1        0.0156
     18 C         139.3809  149.2159  154.6308 C.ar    1  UNL1        0.0127
     19 C         140.2400  148.9019  153.4420 C.ar    1  UNL1        0.0578
     20 CL        140.5384  149.9678  152.4298 Cl      1  UNL1       -0.0822
     21 C         140.8009  147.5219  153.2655 C.ar    1  UNL1        0.0127
     22 C         140.5025  146.4559  154.2778 C.ar    1  UNL1        0.0156
     23 C         140.4170  145.6696  161.4550 C.2     1  UNL1        0.2444
     24 N         140.7145  146.2320  162.8133 N.am    1  UNL1       -0.3253
     25 O         139.2797  146.2214  160.6474 O.2     1  UNL1       -0.2703
     26 H         141.4610  145.8699  163.3434 H       1  UNL1        0.1453
     27 H         140.1634  146.9634  163.1748 H       1  UNL1        0.1453
     28 C         143.8817  142.7475  165.3066 C.3     1  UNL1        0.0671
     29 C         144.6501  143.2391  164.1159 C.3     1  UNL1        0.1097
@<TRIPOS>UNITY_ATOM_ATTR
1 1
charge 1
@<TRIPOS>BOND
     1    28    29    1
     2    29     1    1
     3     1     2    1
     4     1     3    1
     5     3     4    1
     6     4     5   ar
     7     5     6   ar
     8     6    10    1
     9    10    11   am
    10    11    12    2
    11    11    13   am
    12    13    16    1
    13    16    17   ar
    14    17    18   ar
    15    18    19   ar
    16    19    20    1
    17    19    21   ar
    18    21    22   ar
    19     6     7   ar
    20     7    23    1
    21    23    24   am
    22    23    25    2
    23     7     8   ar
    24     8     9    1
    25     9     1    1
    26     8     4   ar
    27    22    16   ar
    28    10    14    1
    29    13    15    1
    30    24    26    1
    31    24    27    1
@<TRIPOS>MOLECULE
*****
 29 31 0 0 0
SMALL
GASTEIGER

@<TRIPOS>ATOM
      1 N         141.1078  141.3851  168.8582 N.4     1  UNL1        0.3087
      2 C         141.9711  142.4714  169.4278 C.3     1  UNL1        0.1712
      3 C         140.9026  142.3549  167.7325 C.3     1  UNL1        0.1430
      4 C         139.9931  141.7127  166.7273 C.ar    1  UNL1        0.0651
      5 S         139.3042  141.9152  165.4103 S.2     1  UNL1       -0.0707
      6 C         138.5216  140.6736  165.1009 C.ar    1  UNL1        0.0860
      7 C         138.7267  139.7037  166.2266 C.ar    1  UNL1        0.0747
      8 C         139.6362  140.3459  167.2317 C.ar    1  UNL1        0.0464
      9 C         140.3252  140.1435  168.5487 C.3     1  UNL1        0.1372
     10 N         137.6812  140.4424  163.8801 N.am    1  UNL1       -0.2629
     11 C         138.3366  140.2289  162.5479 C.2     1  UNL1        0.3085
     12 O         139.8324  140.2466  162.4364 O.2     1  UNL1       -0.2521
     13 N         137.4963  139.9977  161.3271 N.am    1  UNL1       -0.2680
     14 H         136.6995  140.4308  163.9532 H       1  UNL1        0.1569
     15 H         136.5146  139.9861  161.4002 H       1  UNL1        0.1564
     16 C         138.1518  139.7842  159.9948 C.ar    1  UNL1        0.0516
     17 C         137.8323  140.6956  158.8471 C.ar    1  UNL1        0.0156
     18 C         138.4877  140.4821  157.5148 C.ar    1  UNL1        0.0127
     19 C         139.4627  139.3572  157.3304 C.ar    1  UNL1        0.0578
     20 CL        140.1182  139.1436  155.9982 Cl      1  UNL1       -0.0822
     21 C         139.7822  138.4458  158.4782 C.ar    1  UNL1        0.0127
     22 C         139.1267  138.6593  159.8103 C.ar    1  UNL1        0.0156
     23 C         138.1276  138.3324  166.3291 C.2     1  UNL1        0.2444
     24 N         138.5638  137.2509  165.3857 N.am    1  UNL1       -0.3253
     25 O         137.0923  138.0426  167.3751 O.2     1  UNL1       -0.2703
     26 H         139.2433  137.4411  164.6991 H       1  UNL1        0.1453
     27 H         138.1706  136.3509  165.4530 H       1  UNL1        0.1453
     28 C         142.1713  139.3081  170.0006 C.3     1  UNL1        0.0671
     29 C         141.4935  140.6423  170.1030 C.3     1  UNL1        0.1097
@<TRIPOS>UNITY_ATOM_ATTR
1 1
charge 1
@<TRIPOS>BOND
     1    28    29    1
     2    29     1    1
     3     1     2    1
     4     1     3    1
     5     3     4    1
     6     4     5   ar
     7     5     6   ar
     8     6    10    1
     9    10    11   am
    10    11    12    2
    11    11    13   am
    12    13    16    1
    13    16    17   ar
    14    17    18   ar
    15    18    19   ar
    16    19    20    1
    17    19    21   ar
    18    21    22   ar
    19     6     7   ar
    20     7    23    1
    21    23    24   am
    22    23    25    2
    23     7     8   ar
    24     8     9    1
    25     9     1    1
    26     8     4   ar
    27    22    16   ar
    28    10    14    1
    29    13    15    1
    30    24    26    1
    31    24    27    1
@<TRIPOS>MOLECULE
*****
 29 31 0 0 0
SMALL
GASTEIGER

@<TRIPOS>ATOM
      1 N         140.8261  141.3841  168.2977 N.4     1  UNL1        0.3087
      2 C         141.2530  140.1991  169.1123 C.3     1  UNL1        0.1712
      3 C         140.4850  140.3521  167.2639 C.3     1  UNL1        0.1430
      4 C         139.9372  141.0632  166.0622 C.ar    1  UNL1        0.0651
      5 S         139.3879  140.8650  164.6805 S.2     1  UNL1       -0.0707
      6 C         139.0509  142.2139  164.1178 C.ar    1  UNL1        0.0860
      7 C         139.3920  143.2459  165.1515 C.ar    1  UNL1        0.0747
      8 C         139.9398  142.5347  166.3532 C.ar    1  UNL1        0.0464
      9 C         140.4892  142.7330  167.7349 C.3     1  UNL1        0.1372
     10 N         138.4741  142.4836  162.7596 N.am    1  UNL1       -0.2629
     11 C         139.3595  142.9741  161.6526 C.2     1  UNL1        0.3085
     12 O         140.8218  143.1950  161.9038 O.2     1  UNL1       -0.2521
     13 N         138.7827  143.2437  160.2945 N.am    1  UNL1       -0.2680
     14 H         137.5144  142.3386  162.5948 H       1  UNL1        0.1569
     15 H         137.8230  143.0987  160.1296 H       1  UNL1        0.1564
     16 C         139.6682  143.7343  159.1875 C.ar    1  UNL1        0.0516
     17 C         139.8985  142.8795  157.9766 C.ar    1  UNL1        0.0156
     18 C         140.7840  143.3700  156.8696 C.ar    1  UNL1        0.0127
     19 C         141.4391  144.7154  156.9736 C.ar    1  UNL1        0.0578
     20 CL        142.3246  145.2060  155.8667 Cl      1  UNL1       -0.0822
     21 C         141.2088  145.5702  158.1845 C.ar    1  UNL1        0.0127
     22 C         140.3233  145.0796  159.2914 C.ar    1  UNL1        0.0156
     23 C         139.2162  144.7287  165.0086 C.2     1  UNL1        0.2444
     24 N         139.9719  145.4749  163.9493 N.am    1  UNL1       -0.3253
     25 O         138.2848  145.4653  165.9250 O.2     1  UNL1       -0.2703
     26 H         140.5832  144.9915  163.3478 H       1  UNL1        0.1453
     27 H         139.8565  146.4481  163.8555 H       1  UNL1        0.1453
     28 C         140.4746  143.3748  169.9297 C.3     1  UNL1        0.0671
     29 C         141.2565  142.1683  169.5018 C.3     1  UNL1        0.1097
@<TRIPOS>UNITY_ATOM_ATTR
1 1
charge 1
@<TRIPOS>BOND
     1    28    29    1
     2    29     1    1
     3     1     2    1
     4     1     3    1
     5     3     4    1
     6     4     5   ar
     7     5     6   ar
     8     6    10    1
     9    10    11   am
    10    11    12    2
    11    11    13   am
    12    13    16    1
    13    16    17   ar
    14    17    18   ar
    15    18    19   ar
    16    19    20    1
    17    19    21   ar
    18    21    22   ar
    19     6     7   ar
    20     7    23    1
    21    23    24   am
    22    23    25    2
    23     7     8   ar
    24     8     9    1
    25     9     1    1
    26     8     4   ar
    27    22    16   ar
    28    10    14    1
    29    13    15    1
    30    24    26    1
    31    24    27    1
@<TRIPOS>MOLECULE
*****
 29 31 0 0 0
SMALL
GASTEIGER

@<TRIPOS>ATOM
      1 N         140.6263  145.4350  156.7415 N.4     1  UNL1        0.3087
      2 C         140.8875  145.1819  155.2863 C.3     1  UNL1        0.1712
      3 C         141.4395  144.1907  156.9423 C.3     1  UNL1        0.1430
      4 C         141.5223  143.9238  158.4161 C.ar    1  UNL1        0.0651
      5 S         142.0761  142.9899  159.4510 S.2     1  UNL1       -0.0707
      6 C         141.6562  143.4921  160.8006 C.ar    1  UNL1        0.0860
      7 C         140.8430  144.7363  160.5998 C.ar    1  UNL1        0.0747
      8 C         140.7602  145.0032  159.1261 C.ar    1  UNL1        0.0464
      9 C         140.2064  145.9371  158.0911 C.3     1  UNL1        0.1372
     10 N         141.9909  142.8608  162.1195 N.am    1  UNL1       -0.2629
     11 C         141.0537  141.8630  162.7327 C.2     1  UNL1        0.3085
     12 O         139.7818  141.4965  162.0270 O.2     1  UNL1       -0.2521
     13 N         141.3884  141.2317  164.0516 N.am    1  UNL1       -0.2680
     14 H         142.8257  143.1014  162.5826 H       1  UNL1        0.1569
     15 H         142.2231  141.4723  164.5148 H       1  UNL1        0.1564
     16 C         140.4511  140.2339  164.6648 C.ar    1  UNL1        0.0516
     17 C         140.4611  138.8091  164.1962 C.ar    1  UNL1        0.0156
     18 C         139.5238  137.8112  164.8094 C.ar    1  UNL1        0.0127
     19 C         138.5766  138.2384  165.8912 C.ar    1  UNL1        0.0578
     20 CL        137.6393  137.2406  166.5044 Cl      1  UNL1       -0.0822
     21 C         138.5666  139.6633  166.3598 C.ar    1  UNL1        0.0127
     22 C         139.5038  140.6610  165.7466 C.ar    1  UNL1        0.0156
     23 C         140.2216  145.5678  161.6827 C.2     1  UNL1        0.2444
     24 N         139.1877  146.5982  161.3371 N.am    1  UNL1       -0.3253
     25 O         140.6341  145.3690  163.1110 O.2     1  UNL1       -0.2703
     26 H         138.9169  146.7287  160.3996 H       1  UNL1        0.1453
     27 H         138.7798  147.1439  162.0478 H       1  UNL1        0.1453
     28 C         138.6411  146.4329  155.3950 C.3     1  UNL1        0.0671
     29 C         139.8676  146.6264  156.2365 C.3     1  UNL1        0.1097
@<TRIPOS>UNITY_ATOM_ATTR
1 1
charge 1
@<TRIPOS>BOND
     1    28    29    1
     2    29     1    1
     3     1     2    1
     4     1     3    1
     5     3     4    1
     6     4     5   ar
     7     5     6   ar
     8     6    10    1
     9    10    11   am
    10    11    12    2
    11    11    13   am
    12    13    16    1
    13    16    17   ar
    14    17    18   ar
    15    18    19   ar
    16    19    20    1
    17    19    21   ar
    18    21    22   ar
    19     6     7   ar
    20     7    23    1
    21    23    24   am
    22    23    25    2
    23     7     8   ar
    24     8     9    1
    25     9     1    1
    26     8     4   ar
    27    22    16   ar
    28    10    14    1
    29    13    15    1
    30    24    26    1
    31    24    27    1
@<TRIPOS>MOLECULE
*****
 29 31 0 0 0
SMALL
GASTEIGER

@<TRIPOS>ATOM
      1 N         141.2569  141.1993  169.5304 N.4     1  UNL1        0.3087
      2 C         140.5694  140.5253  170.6807 C.3     1  UNL1        0.1712
      3 C         141.5568  139.7965  169.0922 C.3     1  UNL1        0.1430
      4 C         142.3369  139.8672  167.8129 C.ar    1  UNL1        0.0651
      5 S         143.0044  139.0440  166.7515 S.2     1  UNL1       -0.0707
      6 C         143.5991  139.9818  165.7431 C.ar    1  UNL1        0.0860
      7 C         143.2992  141.3846  166.1813 C.ar    1  UNL1        0.0747
      8 C         142.5191  141.3138  167.4605 C.ar    1  UNL1        0.0464
      9 C         141.8516  142.1370  168.5220 C.3     1  UNL1        0.1372
     10 N         144.3601  139.5861  164.5126 N.am    1  UNL1       -0.2629
     11 C         143.6799  139.5923  163.1757 C.2     1  UNL1        0.3085
     12 O         142.2386  139.9941  163.0694 O.2     1  UNL1       -0.2521
     13 N         144.4410  139.1967  161.9451 N.am    1  UNL1       -0.2680
     14 H         145.3061  139.3224  164.5823 H       1  UNL1        0.1569
     15 H         145.3869  138.9330  162.0149 H       1  UNL1        0.1564
     16 C         143.7607  139.2029  160.6082 C.ar    1  UNL1        0.0516
     17 C         143.7376  140.4561  159.7843 C.ar    1  UNL1        0.0156
     18 C         143.0573  140.4623  158.4474 C.ar    1  UNL1        0.0127
     19 C         142.4002  139.2153  157.9345 C.ar    1  UNL1        0.0578
     20 CL        141.7199  139.2214  156.5976 Cl      1  UNL1       -0.0822
     21 C         142.4233  137.9620  158.7585 C.ar    1  UNL1        0.0127
     22 C         143.1036  137.9559  160.0953 C.ar    1  UNL1        0.0156
     23 C         143.7076  142.6381  165.4659 C.2     1  UNL1        0.2444
     24 N         143.1860  142.9190  164.0878 N.am    1  UNL1       -0.3253
     25 O         144.6375  143.6108  166.1285 O.2     1  UNL1       -0.2703
     26 H         142.5757  142.2806  163.6529 H       1  UNL1        0.1453
     27 H         143.4541  143.7418  163.6183 H       1  UNL1        0.1453
     28 C         140.3474  143.6290  169.3909 C.3     1  UNL1        0.0671
     29 C         140.8132  142.4612  170.2091 C.3     1  UNL1        0.1097
@<TRIPOS>UNITY_ATOM_ATTR
1 1
charge 1
@<TRIPOS>BOND
     1    28    29    1
     2    29     1    1
     3     1     2    1
     4     1     3    1
     5     3     4    1
     6     4     5   ar
     7     5     6   ar
     8     6    10    1
     9    10    11   am
    10    11    12    2
    11    11    13   am
    12    13    16    1
    13    16    17   ar
    14    17    18   ar
    15    18    19   ar
    16    19    20    1
    17    19    21   ar
    18    21    22   ar
    19     6     7   ar
    20     7    23    1
    21    23    24   am
    22    23    25    2
    23     7     8   ar
    24     8     9    1
    25     9     1    1
    26     8     4   ar
    27    22    16   ar
    28    10    14    1
    29    13    15    1
    30    24    26    1
    31    24    27    1
