@<TRIPOS>MOLECULE
*****
 34 38 0 0 0
SMALL
GASTEIGER

@<TRIPOS>ATOM
      1 C         139.9612  144.6064  158.3678 C.ar    1  UNL1        0.1317
      2 C         139.7188  143.1285  158.2857 C.ar    1  UNL1        0.0346
      3 C         139.5482  142.3257  159.5413 C.ar    1  UNL1        0.0121
      4 C         139.6199  143.0008  160.8788 C.ar    1  UNL1        0.1076
      5 C         139.8624  144.4788  160.9608 C.ar    1  UNL1        0.1080
      6 N         140.0330  145.2816  159.7053 N.ar    1  UNL1       -0.2289
      7 C         140.0299  149.1824  153.2388 C.3     1  UNL1        0.0104
      8 C         140.8145  148.6208  152.0903 C.3     1  UNL1        0.0325
      9 C         141.4284  147.2564  152.1973 C.3     1  UNL1        0.1420
     10 O         141.2578  146.4535  153.4527 O.3     1  UNL1       -0.3584
     11 C         140.4732  147.0151  154.6012 C.3     1  UNL1        0.0961
     12 C         139.6886  147.5766  155.7498 C.3     1  UNL1        0.0487
     13 C         139.5180  146.7737  157.0052 C.3     1  UNL1        0.0946
     14 N         140.1319  145.4093  157.1122 N.pl3   1  UNL1       -0.2931
     15 C         140.9165  144.8478  155.9637 C.3     1  UNL1        0.0946
     16 C         141.0872  145.6507  154.7082 C.3     1  UNL1        0.0487
     17 C         139.8593  148.3795  154.4942 C.3     1  UNL1        0.0278
     18 C         139.4159  150.5468  153.1318 C.3     1  UNL1        0.0419
     19 O         140.4609  152.3999  154.6231 O.co2   1  UNL1       -0.5492
     20 C         139.3480  151.4353  154.3383 C.2     1  UNL1        0.0503
     21 O         138.1671  151.3594  155.2601 O.co2   1  UNL1       -0.5492
     22 C         139.4493  142.1980  162.1343 C.2     1  UNL1        0.3767
     23 N         138.6998  140.9046  162.2588 N.2     1  UNL1       -0.0308
     24 C         138.7855  140.4548  163.6872 C.2     1  UNL1        0.2320
     25 C         138.2365  139.2519  164.3953 C.2     1  UNL1        0.0537
     26 C         138.4899  139.0643  165.8619 C.2     1  UNL1        0.0714
     27 C         139.2923  140.0797  166.6202 C.2     1  UNL1       -0.0133
     28 C         139.8413  141.2827  165.9121 C.3     1  UNL1        0.1037
     29 C         139.5879  141.4702  164.4456 C.2     1  UNL1        0.2178
     30 N         139.9981  142.5475  163.4858 N.2     1  UNL1       -0.0347
     31 C         137.9409  137.8613  166.5700 C.3     1  UNL1        0.4184
     32 F         137.3919  136.6584  167.2782 F       1  UNL1       -0.1659
     33 F         137.4020  138.7459  167.6549 F       1  UNL1       -0.1659
     34 F         138.4799  136.9767  165.4851 F       1  UNL1       -0.1659
@<TRIPOS>UNITY_ATOM_ATTR
19 1
charge -1
@<TRIPOS>BOND
     1    19    20   ar
     2    20    21   ar
     3    20    18    1
     4    18     7    1
     5     7     8    1
     6     8     9    1
     7     9    10    1
     8    10    11    1
     9    11    12    1
    10    12    13    1
    11    13    14    1
    12    14     1    1
    13     1     2   ar
    14     2     3   ar
    15     3     4   ar
    16     4    22    1
    17    22    23    2
    18    23    24    1
    19    24    25    2
    20    25    26    1
    21    26    31    1
    22    31    32    1
    23    31    33    1
    24    31    34    1
    25    26    27    2
    26    27    28    1
    27    28    29    1
    28    29    30    2
    29     4     5   ar
    30     5     6   ar
    31    14    15    1
    32    15    16    1
    33    11    17    1
    34    17     7    1
    35    16    11    1
    36     6     1   ar
    37    30    22    1
    38    29    24    1
@<TRIPOS>MOLECULE
*****
 34 38 0 0 0
SMALL
GASTEIGER

@<TRIPOS>ATOM
      1 C         140.1400  144.1038  159.3075 C.ar    1  UNL1        0.1317
      2 C         141.2170  144.1839  160.3485 C.ar    1  UNL1        0.0346
      3 C         141.0417  143.4856  161.6643 C.ar    1  UNL1        0.0121
      4 C         139.7894  142.7070  161.9392 C.ar    1  UNL1        0.1076
      5 C         138.7124  142.6269  160.8982 C.ar    1  UNL1        0.1080
      6 N         138.8877  143.3252  159.5824 N.ar    1  UNL1       -0.2289
      7 C         140.2485  148.2590  153.8328 C.3     1  UNL1        0.0104
      8 C         141.0165  147.5957  152.7281 C.3     1  UNL1        0.0325
      9 C         141.6092  146.2341  152.9394 C.3     1  UNL1        0.1420
     10 O         141.4339  145.5357  154.2552 O.3     1  UNL1       -0.3584
     11 C         140.6659  146.1989  155.3598 C.3     1  UNL1        0.0961
     12 C         139.8979  146.8622  156.4645 C.3     1  UNL1        0.0487
     13 C         139.7227  146.1638  157.7804 C.3     1  UNL1        0.0946
     14 N         140.3154  144.8022  157.9916 N.pl3   1  UNL1       -0.2931
     15 C         141.0833  144.1389  156.8870 C.3     1  UNL1        0.0946
     16 C         141.2586  144.8373  155.5710 C.3     1  UNL1        0.0487
     17 C         140.0732  147.5606  155.1486 C.3     1  UNL1        0.0278
     18 C         139.6558  149.6206  153.6216 C.3     1  UNL1        0.0419
     19 O         138.1317  150.4559  155.5528 O.co2   1  UNL1       -0.5492
     20 C         139.4235  150.5275  154.7936 C.2     1  UNL1        0.0503
     21 O         140.4828  151.5059  155.2064 O.co2   1  UNL1       -0.5492
     22 C         139.6141  142.0086  163.2551 C.2     1  UNL1        0.3767
     23 N         140.3027  142.3626  164.5398 N.2     1  UNL1       -0.0308
     24 C         139.8336  141.4064  165.5960 C.2     1  UNL1        0.2320
     25 C         140.1710  141.2741  167.0515 C.2     1  UNL1        0.0537
     26 C         139.5299  140.1967  167.8752 C.2     1  UNL1        0.0714
     27 C         138.5513  139.2518  167.2432 C.2     1  UNL1       -0.0133
     28 C         138.2138  139.3841  165.7877 C.3     1  UNL1        0.1037
     29 C         138.8549  140.4614  164.9641 C.2     1  UNL1        0.2178
     30 N         138.7193  140.8336  163.5173 N.2     1  UNL1       -0.0347
     31 C         139.8673  140.0644  169.3307 C.3     1  UNL1        0.4184
     32 F         140.2048  139.9321  170.7862 F       1  UNL1       -0.1659
     33 F         141.3289  140.1020  168.9953 F       1  UNL1       -0.1659
     34 F         138.4058  140.0267  169.6661 F       1  UNL1       -0.1659
@<TRIPOS>UNITY_ATOM_ATTR
19 1
charge -1
@<TRIPOS>BOND
     1    19    20   ar
     2    20    21   ar
     3    20    18    1
     4    18     7    1
     5     7     8    1
     6     8     9    1
     7     9    10    1
     8    10    11    1
     9    11    12    1
    10    12    13    1
    11    13    14    1
    12    14     1    1
    13     1     2   ar
    14     2     3   ar
    15     3     4   ar
    16     4    22    1
    17    22    23    2
    18    23    24    1
    19    24    25    2
    20    25    26    1
    21    26    31    1
    22    31    32    1
    23    31    33    1
    24    31    34    1
    25    26    27    2
    26    27    28    1
    27    28    29    1
    28    29    30    2
    29     4     5   ar
    30     5     6   ar
    31    14    15    1
    32    15    16    1
    33    11    17    1
    34    17     7    1
    35    16    11    1
    36     6     1   ar
    37    30    22    1
    38    29    24    1
@<TRIPOS>MOLECULE
*****
 34 38 0 0 0
SMALL
GASTEIGER

@<TRIPOS>ATOM
      1 C         141.6725  138.5194  160.4110 C.ar    1  UNL1        0.1317
      2 C         142.8333  137.9791  161.1924 C.ar    1  UNL1        0.0346
      3 C         143.0365  138.3965  162.6187 C.ar    1  UNL1        0.0121
      4 C         142.0789  139.3541  163.2637 C.ar    1  UNL1        0.1076
      5 C         140.9181  139.8943  162.4823 C.ar    1  UNL1        0.1080
      6 N         140.7149  139.4770  161.0560 N.ar    1  UNL1       -0.2289
      7 C         139.5172  137.0213  154.0580 C.3     1  UNL1        0.0104
      8 C         140.6560  136.4325  153.2793 C.3     1  UNL1        0.0325
      9 C         141.9981  136.2611  153.9269 C.3     1  UNL1        0.1420
     10 O         142.2014  136.6785  155.3532 O.3     1  UNL1       -0.3584
     11 C         141.0626  137.2672  156.1319 C.3     1  UNL1        0.0961
     12 C         139.9238  137.8561  156.9107 C.3     1  UNL1        0.0487
     13 C         140.1271  138.2734  158.3370 C.3     1  UNL1        0.0946
     14 N         141.4692  138.1020  158.9846 N.pl3   1  UNL1       -0.2931
     15 C         142.6080  137.5132  158.2059 C.3     1  UNL1        0.0946
     16 C         142.4047  137.0958  156.7795 C.3     1  UNL1        0.0487
     17 C         139.7205  137.4387  155.4843 C.3     1  UNL1        0.0278
     18 C         138.1751  137.1928  153.4104 C.3     1  UNL1        0.0419
     19 O         136.1952  137.8991  154.9372 O.co2   1  UNL1       -0.5492
     20 C         137.2308  138.2461  153.9090 C.2     1  UNL1        0.0503
     21 O         137.3221  139.6466  153.3795 O.co2   1  UNL1       -0.5492
     22 C         142.2822  139.7715  164.6901 C.2     1  UNL1        0.3767
     23 N         142.6024  141.1574  165.1661 N.2     1  UNL1       -0.0308
     24 C         142.7191  141.1187  166.6611 C.2     1  UNL1        0.2320
     25 C         143.0192  142.1851  167.6724 C.2     1  UNL1        0.0537
     26 C         143.0711  141.8415  169.1317 C.2     1  UNL1        0.0714
     27 C         142.8229  140.4316  169.5795 C.2     1  UNL1       -0.0133
     28 C         142.5228  139.3653  168.5682 C.3     1  UNL1        0.1037
     29 C         142.4708  139.7088  167.1090 C.2     1  UNL1        0.2178
     30 N         142.2008  138.8762  165.8909 N.2     1  UNL1       -0.0347
     31 C         143.3712  142.9079  170.1430 C.3     1  UNL1        0.4184
     32 F         143.6714  143.9742  171.1543 F       1  UNL1       -0.1659
     33 F         141.9170  143.2727  170.1898 F       1  UNL1       -0.1659
     34 F         144.8254  142.5430  170.0962 F       1  UNL1       -0.1659
@<TRIPOS>UNITY_ATOM_ATTR
19 1
charge -1
@<TRIPOS>BOND
     1    19    20   ar
     2    20    21   ar
     3    20    18    1
     4    18     7    1
     5     7     8    1
     6     8     9    1
     7     9    10    1
     8    10    11    1
     9    11    12    1
    10    12    13    1
    11    13    14    1
    12    14     1    1
    13     1     2   ar
    14     2     3   ar
    15     3     4   ar
    16     4    22    1
    17    22    23    2
    18    23    24    1
    19    24    25    2
    20    25    26    1
    21    26    31    1
    22    31    32    1
    23    31    33    1
    24    31    34    1
    25    26    27    2
    26    27    28    1
    27    28    29    1
    28    29    30    2
    29     4     5   ar
    30     5     6   ar
    31    14    15    1
    32    15    16    1
    33    11    17    1
    34    17     7    1
    35    16    11    1
    36     6     1   ar
    37    30    22    1
    38    29    24    1
@<TRIPOS>MOLECULE
*****
 34 38 0 0 0
SMALL
GASTEIGER

@<TRIPOS>ATOM
      1 C         142.4937  140.5333  161.3293 C.ar    1  UNL1        0.1317
      2 C         142.7167  139.4052  160.3662 C.ar    1  UNL1        0.0346
      3 C         143.5057  139.6353  159.1114 C.ar    1  UNL1        0.0121
      4 C         144.0717  140.9935  158.8198 C.ar    1  UNL1        0.1076
      5 C         143.8487  142.1215  159.7829 C.ar    1  UNL1        0.1080
      6 N         143.0597  141.8915  161.0377 N.ar    1  UNL1       -0.2289
      7 C         139.9355  139.9492  167.6827 C.3     1  UNL1        0.0104
      8 C         138.5488  139.3831  167.6035 C.3     1  UNL1        0.0325
      9 C         137.9509  139.0471  166.2694 C.3     1  UNL1        0.1420
     10 O         138.7399  139.2771  165.0146 O.3     1  UNL1       -0.3584
     11 C         140.1267  139.8432  165.0939 C.3     1  UNL1        0.0961
     12 C         141.5135  140.4093  165.1730 C.3     1  UNL1        0.0487
     13 C         142.3025  140.6393  163.9182 C.3     1  UNL1        0.0946
     14 N         141.7046  140.3033  162.5842 N.pl3   1  UNL1       -0.2931
     15 C         140.3179  139.7372  162.5050 C.3     1  UNL1        0.0946
     16 C         139.5288  139.5071  163.7598 C.3     1  UNL1        0.0487
     17 C         140.7245  140.1792  166.4279 C.3     1  UNL1        0.0278
     18 C         140.5334  140.2853  169.0167 C.3     1  UNL1        0.0419
     19 O         139.1556  141.8994  170.5156 O.co2   1  UNL1       -0.5492
     20 C         139.6424  140.5158  170.2012 C.2     1  UNL1        0.0503
     21 O         139.2383  139.3628  171.0714 O.co2   1  UNL1       -0.5492
     22 C         144.8607  141.2235  157.5649 C.2     1  UNL1        0.3767
     23 N         146.0219  142.1608  157.4129 N.2     1  UNL1       -0.0308
     24 C         146.5059  142.0732  155.9959 C.2     1  UNL1        0.2320
     25 C         147.6202  142.7681  155.2711 C.2     1  UNL1        0.0537
     26 C         147.8724  142.4716  153.8224 C.2     1  UNL1        0.0714
     27 C         147.0103  141.4802  153.0986 C.2     1  UNL1       -0.0133
     28 C         145.8960  140.7852  153.8235 C.3     1  UNL1        0.1037
     29 C         145.6438  141.0817  155.2720 C.2     1  UNL1        0.2178
     30 N         144.6270  140.5566  156.2418 N.2     1  UNL1       -0.0347
     31 C         148.9867  143.1665  153.0976 C.3     1  UNL1        0.4184
     32 F         150.1011  143.8614  152.3728 F       1  UNL1       -0.1659
     33 F         149.5814  141.8374  152.7375 F       1  UNL1       -0.1659
     34 F         148.3921  144.4957  153.4577 F       1  UNL1       -0.1659
@<TRIPOS>UNITY_ATOM_ATTR
19 1
charge -1
@<TRIPOS>BOND
     1    19    20   ar
     2    20    21   ar
     3    20    18    1
     4    18     7    1
     5     7     8    1
     6     8     9    1
     7     9    10    1
     8    10    11    1
     9    11    12    1
    10    12    13    1
    11    13    14    1
    12    14     1    1
    13     1     2   ar
    14     2     3   ar
    15     3     4   ar
    16     4    22    1
    17    22    23    2
    18    23    24    1
    19    24    25    2
    20    25    26    1
    21    26    31    1
    22    31    32    1
    23    31    33    1
    24    31    34    1
    25    26    27    2
    26    27    28    1
    27    28    29    1
    28    29    30    2
    29     4     5   ar
    30     5     6   ar
    31    14    15    1
    32    15    16    1
    33    11    17    1
    34    17     7    1
    35    16    11    1
    36     6     1   ar
    37    30    22    1
    38    29    24    1
@<TRIPOS>MOLECULE
*****
 34 38 0 0 0
SMALL
GASTEIGER

@<TRIPOS>ATOM
      1 C         141.2594  144.2262  159.9088 C.ar    1  UNL1        0.1317
      2 C         140.0398  143.5724  160.4876 C.ar    1  UNL1        0.0346
      3 C         140.0751  143.0200  161.8817 C.ar    1  UNL1        0.0121
      4 C         141.3301  143.1215  162.6970 C.ar    1  UNL1        0.1076
      5 C         142.5497  143.7753  162.1182 C.ar    1  UNL1        0.1080
      6 N         142.5143  144.3277  160.7241 N.ar    1  UNL1       -0.2289
      7 C         140.3013  147.6572  154.0299 C.3     1  UNL1        0.0104
      8 C         141.0828  146.9884  152.9382 C.3     1  UNL1        0.0325
      9 C         141.8996  145.7672  153.2405 C.3     1  UNL1        0.1420
     10 O         141.9350  145.2147  154.6346 O.3     1  UNL1       -0.3584
     11 C         141.1534  145.8835  155.7263 C.3     1  UNL1        0.0961
     12 C         140.3719  146.5523  156.8182 C.3     1  UNL1        0.0487
     13 C         140.4072  145.9999  158.2123 C.3     1  UNL1        0.0946
     14 N         141.2241  144.7787  158.5146 N.pl3   1  UNL1       -0.2931
     15 C         142.0056  144.1099  157.4229 C.3     1  UNL1        0.0946
     16 C         141.9703  144.6623  156.0287 C.3     1  UNL1        0.0487
     17 C         140.3366  147.1047  155.4240 C.3     1  UNL1        0.0278
     18 C         139.4844  148.8784  153.7276 C.3     1  UNL1        0.0419
     19 O         140.3451  151.0383  154.8870 O.co2   1  UNL1       -0.5492
     20 C         139.3218  149.9480  154.7664 C.2     1  UNL1        0.0503
     21 O         138.1360  149.9275  155.6848 O.co2   1  UNL1       -0.5492
     22 C         141.3654  142.5690  164.0912 C.2     1  UNL1        0.3767
     23 N         141.9824  141.2671  164.5083 N.2     1  UNL1       -0.0308
     24 C         141.7882  141.1150  165.9879 C.2     1  UNL1        0.2320
     25 C         142.1873  140.0326  166.9466 C.2     1  UNL1        0.0537
     26 C         141.8493  140.1583  168.4027 C.2     1  UNL1        0.0714
     27 C         141.1122  141.3663  168.8999 C.2     1  UNL1       -0.0133
     28 C         140.7130  142.4487  167.9412 C.3     1  UNL1        0.1037
     29 C         141.0510  142.3231  166.4852 C.2     1  UNL1        0.2178
     30 N         140.7897  143.2217  165.3130 N.2     1  UNL1       -0.0347
     31 C         142.2484  139.0759  169.3614 C.3     1  UNL1        0.4184
     32 F         142.6476  137.9935  170.3201 F       1  UNL1       -0.1659
     33 F         141.3373  139.6599  170.4000 F       1  UNL1       -0.1659
     34 F         143.1596  138.4919  168.3227 F       1  UNL1       -0.1659
@<TRIPOS>UNITY_ATOM_ATTR
19 1
charge -1
@<TRIPOS>BOND
     1    19    20   ar
     2    20    21   ar
     3    20    18    1
     4    18     7    1
     5     7     8    1
     6     8     9    1
     7     9    10    1
     8    10    11    1
     9    11    12    1
    10    12    13    1
    11    13    14    1
    12    14     1    1
    13     1     2   ar
    14     2     3   ar
    15     3     4   ar
    16     4    22    1
    17    22    23    2
    18    23    24    1
    19    24    25    2
    20    25    26    1
    21    26    31    1
    22    31    32    1
    23    31    33    1
    24    31    34    1
    25    26    27    2
    26    27    28    1
    27    28    29    1
    28    29    30    2
    29     4     5   ar
    30     5     6   ar
    31    14    15    1
    32    15    16    1
    33    11    17    1
    34    17     7    1
    35    16    11    1
    36     6     1   ar
    37    30    22    1
    38    29    24    1
@<TRIPOS>MOLECULE
*****
 34 38 0 0 0
SMALL
GASTEIGER

@<TRIPOS>ATOM
      1 C         143.8398  141.5480  160.3742 C.ar    1  UNL1        0.1317
      2 C         142.5049  141.0980  160.8893 C.ar    1  UNL1        0.0346
      3 C         142.1541  141.2933  162.3345 C.ar    1  UNL1        0.0121
      4 C         143.1382  141.9386  163.2646 C.ar    1  UNL1        0.1076
      5 C         144.4731  142.3886  162.7495 C.ar    1  UNL1        0.1080
      6 N         144.8239  142.1933  161.3043 N.ar    1  UNL1       -0.2289
      7 C         146.1538  141.7400  153.9043 C.3     1  UNL1        0.0104
      8 C         145.5943  140.5717  153.1479 C.3     1  UNL1        0.0325
      9 C         144.6839  139.5987  153.8367 C.3     1  UNL1        0.1420
     10 O         144.3330  139.7940  155.2819 O.3     1  UNL1       -0.3584
     11 C         144.8925  140.9622  156.0383 C.3     1  UNL1        0.0961
     12 C         145.4520  142.1305  156.7948 C.3     1  UNL1        0.0487
     13 C         145.1011  142.3257  158.2400 C.3     1  UNL1        0.0946
     14 N         144.1907  141.3527  158.9289 N.pl3   1  UNL1       -0.2931
     15 C         143.6312  140.1845  158.1725 C.3     1  UNL1        0.0946
     16 C         143.9821  139.9892  156.7272 C.3     1  UNL1        0.0487
     17 C         145.8029  141.9352  155.3495 C.3     1  UNL1        0.0278
     18 C         147.0641  142.7129  153.2154 C.3     1  UNL1        0.0419
     19 O         149.3876  143.8665  153.0714 O.co2   1  UNL1       -0.5492
     20 C         148.5279  142.7311  153.5425 C.2     1  UNL1        0.0503
     21 O         149.1320  141.6140  154.3406 O.co2   1  UNL1       -0.5492
     22 C         142.7873  142.1339  164.7099 C.2     1  UNL1        0.3767
     23 N         141.4271  142.4616  165.2505 N.2     1  UNL1       -0.0308
     24 C         141.5342  142.5659  166.7430 C.2     1  UNL1        0.2320
     25 C         140.5171  142.8666  167.8037 C.2     1  UNL1        0.0537
     26 C         140.9266  142.9042  169.2463 C.2     1  UNL1        0.0714
     27 C         142.3531  142.6410  169.6281 C.2     1  UNL1       -0.0133
     28 C         143.3701  142.3403  168.5674 C.3     1  UNL1        0.1037
     29 C         142.9607  142.3028  167.1249 C.2     1  UNL1        0.2178
     30 N         143.7352  142.0357  165.8684 N.2     1  UNL1       -0.0347
     31 C         139.9095  143.2049  170.3070 C.3     1  UNL1        0.4184
     32 F         138.8924  143.5056  171.3678 F       1  UNL1       -0.1659
     33 F         140.2740  144.6585  170.2445 F       1  UNL1       -0.1659
     34 F         139.5450  141.7512  170.3696 F       1  UNL1       -0.1659
@<TRIPOS>UNITY_ATOM_ATTR
19 1
charge -1
@<TRIPOS>BOND
     1    19    20   ar
     2    20    21   ar
     3    20    18    1
     4    18     7    1
     5     7     8    1
     6     8     9    1
     7     9    10    1
     8    10    11    1
     9    11    12    1
    10    12    13    1
    11    13    14    1
    12    14     1    1
    13     1     2   ar
    14     2     3   ar
    15     3     4   ar
    16     4    22    1
    17    22    23    2
    18    23    24    1
    19    24    25    2
    20    25    26    1
    21    26    31    1
    22    31    32    1
    23    31    33    1
    24    31    34    1
    25    26    27    2
    26    27    28    1
    27    28    29    1
    28    29    30    2
    29     4     5   ar
    30     5     6   ar
    31    14    15    1
    32    15    16    1
    33    11    17    1
    34    17     7    1
    35    16    11    1
    36     6     1   ar
    37    30    22    1
    38    29    24    1
@<TRIPOS>MOLECULE
*****
 34 38 0 0 0
SMALL
GASTEIGER

@<TRIPOS>ATOM
      1 C         141.1444  139.4272  158.4896 C.ar    1  UNL1        0.1317
      2 C         140.1177  138.7510  157.6301 C.ar    1  UNL1        0.0346
      3 C         140.4658  137.4885  156.8988 C.ar    1  UNL1        0.0121
      4 C         141.8405  136.9022  157.0269 C.ar    1  UNL1        0.1076
      5 C         142.8671  137.5784  157.8863 C.ar    1  UNL1        0.1080
      6 N         142.5191  138.8409  158.6177 N.ar    1  UNL1       -0.2289
      7 C         138.9389  144.4149  162.6739 C.3     1  UNL1        0.0104
      8 C         139.4044  145.7397  162.1466 C.3     1  UNL1        0.0325
      9 C         140.2179  145.8021  160.8879 C.3     1  UNL1        0.1420
     10 O         140.5659  144.5396  160.1565 O.3     1  UNL1       -0.3584
     11 C         140.1004  143.2148  160.6838 C.3     1  UNL1        0.0961
     12 C         139.6349  141.8899  161.2111 C.3     1  UNL1        0.0487
     13 C         139.9829  140.6274  160.4797 C.3     1  UNL1        0.0946
     14 N         140.7964  140.6898  159.2210 N.pl3   1  UNL1       -0.2931
     15 C         141.2619  142.0146  158.6937 C.3     1  UNL1        0.0946
     16 C         140.9139  143.2772  159.4251 C.3     1  UNL1        0.0487
     17 C         139.2869  143.1524  161.9425 C.3     1  UNL1        0.0278
     18 C         138.1254  144.3526  163.9326 C.3     1  UNL1        0.0419
     19 O         140.0579  143.8454  165.5935 O.co2   1  UNL1       -0.5492
     20 C         138.7846  144.5662  165.2630 C.2     1  UNL1        0.0503
     21 O         138.1704  145.5005  166.2629 O.co2   1  UNL1       -0.5492
     22 C         142.1885  135.6396  156.2955 C.2     1  UNL1        0.3767
     23 N         143.1328  134.5762  156.7722 N.2     1  UNL1       -0.0308
     24 C         143.1812  133.4982  155.7303 C.2     1  UNL1        0.2320
     25 C         143.9398  132.2062  155.6572 C.2     1  UNL1        0.0537
     26 C         143.7839  131.3114  154.4634 C.2     1  UNL1        0.0714
     27 C         142.8694  131.7087  153.3427 C.2     1  UNL1       -0.0133
     28 C         142.1108  133.0006  153.4158 C.3     1  UNL1        0.1037
     29 C         142.2667  133.8954  154.6095 C.2     1  UNL1        0.2178
     30 N         141.6532  135.2189  154.9589 N.2     1  UNL1       -0.0347
     31 C         144.5425  130.0195  154.3903 C.3     1  UNL1        0.4184
     32 F         145.3010  128.7275  154.3173 F       1  UNL1       -0.1659
     33 F         145.3188  130.4061  155.6142 F       1  UNL1       -0.1659
     34 F         143.7661  129.6328  153.1665 F       1  UNL1       -0.1659
@<TRIPOS>UNITY_ATOM_ATTR
19 1
charge -1
@<TRIPOS>BOND
     1    19    20   ar
     2    20    21   ar
     3    20    18    1
     4    18     7    1
     5     7     8    1
     6     8     9    1
     7     9    10    1
     8    10    11    1
     9    11    12    1
    10    12    13    1
    11    13    14    1
    12    14     1    1
    13     1     2   ar
    14     2     3   ar
    15     3     4   ar
    16     4    22    1
    17    22    23    2
    18    23    24    1
    19    24    25    2
    20    25    26    1
    21    26    31    1
    22    31    32    1
    23    31    33    1
    24    31    34    1
    25    26    27    2
    26    27    28    1
    27    28    29    1
    28    29    30    2
    29     4     5   ar
    30     5     6   ar
    31    14    15    1
    32    15    16    1
    33    11    17    1
    34    17     7    1
    35    16    11    1
    36     6     1   ar
    37    30    22    1
    38    29    24    1
@<TRIPOS>MOLECULE
*****
 34 38 0 0 0
SMALL
GASTEIGER

@<TRIPOS>ATOM
      1 C         142.6203  139.3507  159.4486 C.ar    1  UNL1        0.1317
      2 C         142.4133  139.4894  157.9695 C.ar    1  UNL1        0.0346
      3 C         142.4975  138.2816  157.0840 C.ar    1  UNL1        0.0121
      4 C         142.7886  136.9352  157.6776 C.ar    1  UNL1        0.1076
      5 C         142.9956  136.7965  159.1568 C.ar    1  UNL1        0.1080
      6 N         142.9115  138.0043  160.0422 N.ar    1  UNL1       -0.2289
      7 C         140.9878  144.5325  163.6598 C.3     1  UNL1        0.0104
      8 C         142.1996  145.3896  163.8763 C.3     1  UNL1        0.0325
      9 C         143.4955  145.0390  163.2073 C.3     1  UNL1        0.1420
     10 O         143.5797  143.8312  162.3218 O.3     1  UNL1       -0.3584
     11 C         142.3679  142.9741  162.1053 C.3     1  UNL1        0.0961
     12 C         141.1561  142.1170  161.8887 C.3     1  UNL1        0.0487
     13 C         141.2403  140.9092  161.0032 C.3     1  UNL1        0.0946
     14 N         142.5362  140.5586  160.3342 N.pl3   1  UNL1       -0.2931
     15 C         143.7480  141.4157  160.5507 C.3     1  UNL1        0.0946
     16 C         143.6639  142.6235  161.4363 C.3     1  UNL1        0.0487
     17 C         141.0720  143.3248  162.7743 C.3     1  UNL1        0.0278
     18 C         139.6918  144.8832  164.3288 C.3     1  UNL1        0.0419
     19 O         137.7737  144.7496  162.5815 O.co2   1  UNL1       -0.5492
     20 C         138.4104  144.2670  163.8511 C.2     1  UNL1        0.0503
     21 O         137.7657  143.1682  164.6429 O.co2   1  UNL1       -0.5492
     22 C         142.8728  135.7273  156.7920 C.2     1  UNL1        0.3767
     23 N         143.7055  134.5055  157.0442 N.2     1  UNL1       -0.0308
     24 C         143.4863  133.5524  155.9068 C.2     1  UNL1        0.2320
     25 C         144.0432  132.1900  155.6175 C.2     1  UNL1        0.0537
     26 C         143.6319  131.4604  154.3730 C.2     1  UNL1        0.0714
     27 C         142.6638  132.0933  153.4179 C.2     1  UNL1       -0.0133
     28 C         142.1068  133.4557  153.7073 C.3     1  UNL1        0.1037
     29 C         142.5181  134.1852  154.9517 C.2     1  UNL1        0.2178
     30 N         142.1389  135.5294  155.4989 N.2     1  UNL1       -0.0347
     31 C         144.1889  130.0981  154.0836 C.3     1  UNL1        0.4184
     32 F         144.7458  128.7357  153.7942 F       1  UNL1       -0.1659
     33 F         145.1751  130.2637  155.2016 F       1  UNL1       -0.1659
     34 F         143.2026  129.9324  152.9656 F       1  UNL1       -0.1659
@<TRIPOS>UNITY_ATOM_ATTR
19 1
charge -1
@<TRIPOS>BOND
     1    19    20   ar
     2    20    21   ar
     3    20    18    1
     4    18     7    1
     5     7     8    1
     6     8     9    1
     7     9    10    1
     8    10    11    1
     9    11    12    1
    10    12    13    1
    11    13    14    1
    12    14     1    1
    13     1     2   ar
    14     2     3   ar
    15     3     4   ar
    16     4    22    1
    17    22    23    2
    18    23    24    1
    19    24    25    2
    20    25    26    1
    21    26    31    1
    22    31    32    1
    23    31    33    1
    24    31    34    1
    25    26    27    2
    26    27    28    1
    27    28    29    1
    28    29    30    2
    29     4     5   ar
    30     5     6   ar
    31    14    15    1
    32    15    16    1
    33    11    17    1
    34    17     7    1
    35    16    11    1
    36     6     1   ar
    37    30    22    1
    38    29    24    1
@<TRIPOS>MOLECULE
*****
 34 38 0 0 0
SMALL
GASTEIGER

@<TRIPOS>ATOM
      1 C         141.9131  137.0110  157.2077 C.ar    1  UNL1        0.1317
      2 C         140.5654  137.6645  157.1253 C.ar    1  UNL1        0.0346
      3 C         140.2663  138.8744  157.9598 C.ar    1  UNL1        0.0121
      4 C         141.3149  139.4309  158.8768 C.ar    1  UNL1        0.1076
      5 C         142.6625  138.7775  158.9592 C.ar    1  UNL1        0.1080
      6 N         142.9616  137.5675  158.1247 N.ar    1  UNL1       -0.2289
      7 C         143.9472  131.0607  154.4316 C.3     1  UNL1        0.0104
      8 C         143.4089  130.9611  153.0351 C.3     1  UNL1        0.0325
      9 C         142.5714  132.0714  152.4731 C.3     1  UNL1        0.1420
     10 O         142.2723  133.2814  153.3076 O.3     1  UNL1       -0.3584
     11 C         142.8105  133.3810  154.7041 C.3     1  UNL1        0.0961
     12 C         143.3488  133.4807  156.1006 C.3     1  UNL1        0.0487
     13 C         143.0497  134.6907  156.9351 C.3     1  UNL1        0.0946
     14 N         142.2122  135.8010  156.3731 N.pl3   1  UNL1       -0.2931
     15 C         141.6739  135.7014  154.9766 C.3     1  UNL1        0.0946
     16 C         141.9731  134.4913  154.1420 C.3     1  UNL1        0.0487
     17 C         143.6480  132.2707  155.2661 C.3     1  UNL1        0.0278
     18 C         144.7846  129.9504  154.9936 C.3     1  UNL1        0.0419
     19 O         144.7060  129.8568  157.5888 O.co2   1  UNL1       -0.5492
     20 C         144.3637  129.2589  156.2563 C.2     1  UNL1        0.0503
     21 O         143.6006  127.9694  156.1867 O.co2   1  UNL1       -0.5492
     22 C         141.0157  140.6409  159.7114 C.2     1  UNL1        0.3767
     23 N         140.3172  140.6457  161.0388 N.2     1  UNL1       -0.0308
     24 C         140.2323  142.0663  161.5128 C.2     1  UNL1        0.2320
     25 C         139.6502  142.6776  162.7527 C.2     1  UNL1        0.0537
     26 C         139.7142  144.1621  162.9582 C.2     1  UNL1        0.0714
     27 C         140.3603  145.0353  161.9238 C.2     1  UNL1       -0.0133
     28 C         140.9424  144.4240  160.6838 C.3     1  UNL1        0.1037
     29 C         140.8785  142.9396  160.4783 C.2     1  UNL1        0.2178
     30 N         141.3626  142.0586  159.3650 N.2     1  UNL1       -0.0347
     31 C         139.1321  144.7734  164.1981 C.3     1  UNL1        0.4184
     32 F         138.5500  145.3847  165.4381 F       1  UNL1       -0.1659
     33 F         140.5126  145.1017  164.6844 F       1  UNL1       -0.1659
     34 F         137.7516  144.4452  163.7119 F       1  UNL1       -0.1659
@<TRIPOS>UNITY_ATOM_ATTR
19 1
charge -1
@<TRIPOS>BOND
     1    19    20   ar
     2    20    21   ar
     3    20    18    1
     4    18     7    1
     5     7     8    1
     6     8     9    1
     7     9    10    1
     8    10    11    1
     9    11    12    1
    10    12    13    1
    11    13    14    1
    12    14     1    1
    13     1     2   ar
    14     2     3   ar
    15     3     4   ar
    16     4    22    1
    17    22    23    2
    18    23    24    1
    19    24    25    2
    20    25    26    1
    21    26    31    1
    22    31    32    1
    23    31    33    1
    24    31    34    1
    25    26    27    2
    26    27    28    1
    27    28    29    1
    28    29    30    2
    29     4     5   ar
    30     5     6   ar
    31    14    15    1
    32    15    16    1
    33    11    17    1
    34    17     7    1
    35    16    11    1
    36     6     1   ar
    37    30    22    1
    38    29    24    1
