@<TRIPOS>MOLECULE
*****
 33 37 0 0 0
SMALL
GASTEIGER

@<TRIPOS>ATOM
      1 O         141.9070  145.2740  159.0028 O.2     1  UNL1       -0.2665
      2 C         140.8321  144.2953  159.3723 C.ar    1  UNL1        0.2672
      3 C         139.8396  143.8465  158.3409 C.ar    1  UNL1        0.0742
      4 C         139.9222  144.3764  156.9401 C.ar    1  UNL1        0.0063
      5 C         138.9298  143.9276  155.9087 C.ar    1  UNL1        0.0003
      6 C         137.8548  142.9488  156.2782 C.ar    1  UNL1        0.0015
      7 C         137.7723  142.4189  157.6790 C.ar    1  UNL1        0.0193
      8 C         138.7647  142.8677  158.7103 C.ar    1  UNL1        0.0875
      9 N         138.6822  142.3377  160.1112 N.ar    1  UNL1       -0.2277
     10 C         139.6746  142.7865  161.1425 C.ar    1  UNL1        0.1498
     11 N         140.7495  143.7653  160.7731 N.ar    1  UNL1       -0.2592
     12 C         139.5921  142.2565  162.5434 C.ar    1  UNL1        0.0347
     13 C         140.7385  141.4799  163.1202 C.ar    1  UNL1        0.0061
     14 C         140.6560  140.9499  164.5210 C.ar    1  UNL1        0.0370
     15 C         139.4272  141.1966  165.3450 C.ar    1  UNL1        0.1386
     16 C         138.2809  141.9732  164.7683 C.ar    1  UNL1        0.0370
     17 C         138.3633  142.5032  163.3675 C.ar    1  UNL1        0.0061
     18 O         139.3447  140.6666  166.7459 O.3     1  UNL1       -0.4754
     19 C         138.8380  139.2766  166.9933 C.3     1  UNL1        0.2068
     20 C         138.2016  138.5008  165.8784 C.3     1  UNL1        0.0646
     21 C         139.0254  137.5518  165.0594 C.3     1  UNL1        0.0759
     22 N         139.3519  137.8808  163.6328 N.3     1  UNL1       -0.2726
     23 C         138.3334  138.5633  162.7685 C.3     1  UNL1        0.0721
     24 C         138.6600  138.8923  161.3419 C.3     1  UNL1        0.0174
     25 C         140.0049  138.5389  160.7797 C.3     1  UNL1        0.0029
     26 C         141.0234  137.8565  161.6440 C.3     1  UNL1        0.0174
     27 C         140.6969  137.5274  163.0705 C.3     1  UNL1        0.0721
     28 C         141.7420  144.2141  161.8045 C.ar    1  UNL1        0.0682
     29 C         143.1557  143.7155  161.7519 C.ar    1  UNL1        0.0177
     30 C         144.1480  144.1643  162.7833 C.ar    1  UNL1        0.0015
     31 C         143.7266  145.1117  163.8672 C.ar    1  UNL1        0.0001
     32 C         142.3129  145.6103  163.9198 C.ar    1  UNL1        0.0015
     33 C         141.3206  145.1615  162.8884 C.ar    1  UNL1        0.0177
@<TRIPOS>BOND
     1     1     2    2
     2     2     3   ar
     3     3     4   ar
     4     4     5   ar
     5     5     6   ar
     6     6     7   ar
     7     7     8   ar
     8     8     9   ar
     9     9    10   ar
    10    10    12    1
    11    12    13   ar
    12    13    14   ar
    13    14    15   ar
    14    15    18    1
    15    18    19    1
    16    19    20    1
    17    20    21    1
    18    21    22    1
    19    22    23    1
    20    23    24    1
    21    24    25    1
    22    25    26    1
    23    26    27    1
    24    15    16   ar
    25    16    17   ar
    26    10    11   ar
    27    11    28    1
    28    28    29   ar
    29    29    30   ar
    30    30    31   ar
    31    31    32   ar
    32    32    33   ar
    33    11     2   ar
    34    33    28   ar
    35     8     3   ar
    36    17    12   ar
    37    27    22    1
@<TRIPOS>MOLECULE
*****
 33 37 0 0 0
SMALL
GASTEIGER

@<TRIPOS>ATOM
      1 O         138.5138  139.1192  167.6167 O.2     1  UNL1       -0.2665
      2 C         139.7465  139.9571  167.4477 C.ar    1  UNL1        0.2672
      3 C         140.4495  140.5087  168.6525 C.ar    1  UNL1        0.0742
      4 C         139.9198  140.2224  170.0264 C.ar    1  UNL1        0.0063
      5 C         140.6228  140.7740  171.2311 C.ar    1  UNL1        0.0003
      6 C         141.8554  141.6118  171.0621 C.ar    1  UNL1        0.0015
      7 C         142.3851  141.8981  169.6883 C.ar    1  UNL1        0.0193
      8 C         141.6821  141.3466  168.4835 C.ar    1  UNL1        0.0875
      9 N         142.2118  141.6329  167.1096 N.ar    1  UNL1       -0.2277
     10 C         141.5088  141.0813  165.9048 C.ar    1  UNL1        0.1498
     11 N         140.2761  140.2434  166.0738 N.ar    1  UNL1       -0.2592
     12 C         142.0384  141.3676  164.5309 C.ar    1  UNL1        0.0347
     13 C         141.7628  142.6914  163.8817 C.ar    1  UNL1        0.0061
     14 C         142.2924  142.9778  162.5078 C.ar    1  UNL1        0.0370
     15 C         143.0976  141.9402  161.7832 C.ar    1  UNL1        0.1386
     16 C         143.3732  140.6164  162.4324 C.ar    1  UNL1        0.0370
     17 C         142.8436  140.3300  163.8062 C.ar    1  UNL1        0.0061
     18 O         143.6272  142.2265  160.4092 O.3     1  UNL1       -0.4754
     19 C         142.8298  143.0694  159.4587 C.3     1  UNL1        0.2068
     20 C         141.5193  142.5673  158.9293 C.3     1  UNL1        0.0646
     21 C         140.3147  143.4611  158.9384 C.3     1  UNL1        0.0759
     22 N         139.8083  144.0242  160.2331 N.3     1  UNL1       -0.2726
     23 C         138.9237  143.1953  161.1165 C.3     1  UNL1        0.0721
     24 C         138.4172  143.7584  162.4113 C.3     1  UNL1        0.0174
     25 C         138.7954  145.1504  162.8227 C.3     1  UNL1        0.0029
     26 C         139.6800  145.9793  161.9393 C.3     1  UNL1        0.0174
     27 C         140.1865  145.4163  160.6446 C.3     1  UNL1        0.0721
     28 C         139.5731  139.6918  164.8690 C.ar    1  UNL1        0.0682
     29 C         138.6032  140.5475  164.1094 C.ar    1  UNL1        0.0177
     30 C         137.9003  139.9959  162.9046 C.ar    1  UNL1        0.0015
     31 C         138.1673  138.5886  162.4594 C.ar    1  UNL1        0.0001
     32 C         139.1372  137.7330  163.2189 C.ar    1  UNL1        0.0015
     33 C         139.8401  138.2845  164.4237 C.ar    1  UNL1        0.0177
@<TRIPOS>BOND
     1     1     2    2
     2     2     3   ar
     3     3     4   ar
     4     4     5   ar
     5     5     6   ar
     6     6     7   ar
     7     7     8   ar
     8     8     9   ar
     9     9    10   ar
    10    10    12    1
    11    12    13   ar
    12    13    14   ar
    13    14    15   ar
    14    15    18    1
    15    18    19    1
    16    19    20    1
    17    20    21    1
    18    21    22    1
    19    22    23    1
    20    23    24    1
    21    24    25    1
    22    25    26    1
    23    26    27    1
    24    15    16   ar
    25    16    17   ar
    26    10    11   ar
    27    11    28    1
    28    28    29   ar
    29    29    30   ar
    30    30    31   ar
    31    31    32   ar
    32    32    33   ar
    33    11     2   ar
    34    33    28   ar
    35     8     3   ar
    36    17    12   ar
    37    27    22    1
@<TRIPOS>MOLECULE
*****
 33 37 0 0 0
SMALL
GASTEIGER

@<TRIPOS>ATOM
      1 O         143.8350  142.8614  167.8250 O.2     1  UNL1       -0.2665
      2 C         142.5133  142.2206  167.5207 C.ar    1  UNL1        0.2672
      3 C         141.7358  141.5495  168.6140 C.ar    1  UNL1        0.0742
      4 C         142.2799  141.5193  170.0114 C.ar    1  UNL1        0.0063
      5 C         141.5024  140.8482  171.1046 C.ar    1  UNL1        0.0003
      6 C         140.1808  140.2074  170.8004 C.ar    1  UNL1        0.0015
      7 C         139.6366  140.2376  169.4029 C.ar    1  UNL1        0.0193
      8 C         140.4141  140.9087  168.3097 C.ar    1  UNL1        0.0875
      9 N         139.8700  140.9389  166.9121 N.ar    1  UNL1       -0.2277
     10 C         140.6475  141.6100  165.8190 C.ar    1  UNL1        0.1498
     11 N         141.9692  142.2508  166.1232 N.ar    1  UNL1       -0.2592
     12 C         140.1034  141.6403  164.4214 C.ar    1  UNL1        0.0347
     13 C         140.9667  141.2144  163.2711 C.ar    1  UNL1        0.0061
     14 C         140.4226  141.2446  161.8736 C.ar    1  UNL1        0.0370
     15 C         139.0153  141.7008  161.6264 C.ar    1  UNL1        0.1386
     16 C         138.1519  142.1266  162.7768 C.ar    1  UNL1        0.0370
     17 C         138.6960  142.0964  164.1742 C.ar    1  UNL1        0.0061
     18 O         138.4711  141.7310  160.2289 O.3     1  UNL1       -0.4754
     19 C         137.9855  140.4660  159.5856 C.3     1  UNL1        0.2068
     20 C         137.7599  139.2394  160.4190 C.3     1  UNL1        0.0646
     21 C         138.8785  138.2638  160.6357 C.3     1  UNL1        0.0759
     22 N         139.4305  138.0497  162.0139 N.3     1  UNL1       -0.2726
     23 C         138.5548  138.2591  163.2135 C.3     1  UNL1        0.0721
     24 C         139.1069  138.0450  164.5917 C.3     1  UNL1        0.0174
     25 C         140.5347  137.6215  164.7702 C.3     1  UNL1        0.0029
     26 C         141.4105  137.4122  163.5706 C.3     1  UNL1        0.0174
     27 C         140.8585  137.6262  162.1924 C.3     1  UNL1        0.0721
     28 C         142.7467  142.9219  165.0299 C.ar    1  UNL1        0.0682
     29 C         142.3142  144.2633  164.5167 C.ar    1  UNL1        0.0177
     30 C         143.0917  144.9344  163.4235 C.ar    1  UNL1        0.0015
     31 C         144.3017  144.2639  162.8435 C.ar    1  UNL1        0.0001
     32 C         144.7342  142.9225  163.3567 C.ar    1  UNL1        0.0015
     33 C         143.9567  142.2515  164.4499 C.ar    1  UNL1        0.0177
@<TRIPOS>BOND
     1     1     2    2
     2     2     3   ar
     3     3     4   ar
     4     4     5   ar
     5     5     6   ar
     6     6     7   ar
     7     7     8   ar
     8     8     9   ar
     9     9    10   ar
    10    10    12    1
    11    12    13   ar
    12    13    14   ar
    13    14    15   ar
    14    15    18    1
    15    18    19    1
    16    19    20    1
    17    20    21    1
    18    21    22    1
    19    22    23    1
    20    23    24    1
    21    24    25    1
    22    25    26    1
    23    26    27    1
    24    15    16   ar
    25    16    17   ar
    26    10    11   ar
    27    11    28    1
    28    28    29   ar
    29    29    30   ar
    30    30    31   ar
    31    31    32   ar
    32    32    33   ar
    33    11     2   ar
    34    33    28   ar
    35     8     3   ar
    36    17    12   ar
    37    27    22    1
@<TRIPOS>MOLECULE
*****
 33 37 0 0 0
SMALL
GASTEIGER

@<TRIPOS>ATOM
      1 O         142.9927  137.7451  166.2644 O.2     1  UNL1       -0.2665
      2 C         142.8107  139.2339  166.2440 C.ar    1  UNL1        0.2672
      3 C         142.7125  139.9952  167.5327 C.ar    1  UNL1        0.0742
      4 C         142.7964  139.2678  168.8418 C.ar    1  UNL1        0.0063
      5 C         142.6982  140.0292  170.1305 C.ar    1  UNL1        0.0003
      6 C         142.5162  141.5180  170.1100 C.ar    1  UNL1        0.0015
      7 C         142.4324  142.2454  168.8009 C.ar    1  UNL1        0.0193
      8 C         142.5305  141.4840  167.5123 C.ar    1  UNL1        0.0875
      9 N         142.4467  142.2114  166.2031 N.ar    1  UNL1       -0.2277
     10 C         142.5448  141.4501  164.9145 C.ar    1  UNL1        0.1498
     11 N         142.7268  139.9613  164.9349 N.ar    1  UNL1       -0.2592
     12 C         142.4609  142.1775  163.6053 C.ar    1  UNL1        0.0347
     13 C         141.4151  141.7949  162.6004 C.ar    1  UNL1        0.0061
     14 C         141.3312  142.5223  161.2912 C.ar    1  UNL1        0.0370
     15 C         142.2931  143.6322  160.9870 C.ar    1  UNL1        0.1386
     16 C         143.3390  144.0148  161.9919 C.ar    1  UNL1        0.0370
     17 C         143.4229  143.2875  163.3010 C.ar    1  UNL1        0.0061
     18 O         142.2093  144.3596  159.6778 O.3     1  UNL1       -0.4754
     19 C         141.2969  145.5415  159.5336 C.3     1  UNL1        0.2068
     20 C         139.9759  145.5603  160.2439 C.3     1  UNL1        0.0646
     21 C         139.9000  146.0039  161.6748 C.3     1  UNL1        0.0759
     22 N         139.4102  145.0559  162.7290 N.3     1  UNL1       -0.2726
     23 C         138.2396  144.1612  162.4476 C.3     1  UNL1        0.0721
     24 C         137.7498  143.2131  163.5019 C.3     1  UNL1        0.0174
     25 C         138.4307  143.1598  164.8374 C.3     1  UNL1        0.0029
     26 C         139.6013  144.0545  165.1187 C.3     1  UNL1        0.0174
     27 C         140.0911  145.0026  164.0645 C.3     1  UNL1        0.0721
     28 C         142.8249  139.2000  163.6462 C.ar    1  UNL1        0.0682
     29 C         144.1108  139.1952  162.8739 C.ar    1  UNL1        0.0177
     30 C         144.2089  138.4339  161.5852 C.ar    1  UNL1        0.0015
     31 C         143.0211  137.6773  161.0688 C.ar    1  UNL1        0.0001
     32 C         141.7352  137.6820  161.8411 C.ar    1  UNL1        0.0015
     33 C         141.6371  138.4434  163.1297 C.ar    1  UNL1        0.0177
@<TRIPOS>BOND
     1     1     2    2
     2     2     3   ar
     3     3     4   ar
     4     4     5   ar
     5     5     6   ar
     6     6     7   ar
     7     7     8   ar
     8     8     9   ar
     9     9    10   ar
    10    10    12    1
    11    12    13   ar
    12    13    14   ar
    13    14    15   ar
    14    15    18    1
    15    18    19    1
    16    19    20    1
    17    20    21    1
    18    21    22    1
    19    22    23    1
    20    23    24    1
    21    24    25    1
    22    25    26    1
    23    26    27    1
    24    15    16   ar
    25    16    17   ar
    26    10    11   ar
    27    11    28    1
    28    28    29   ar
    29    29    30   ar
    30    30    31   ar
    31    31    32   ar
    32    32    33   ar
    33    11     2   ar
    34    33    28   ar
    35     8     3   ar
    36    17    12   ar
    37    27    22    1
@<TRIPOS>MOLECULE
*****
 33 37 0 0 0
SMALL
GASTEIGER

@<TRIPOS>ATOM
      1 O         141.8357  145.4047  158.9927 O.2     1  UNL1       -0.2665
      2 C         140.7902  144.3726  159.2954 C.ar    1  UNL1        0.2672
      3 C         139.8151  143.9587  158.2333 C.ar    1  UNL1        0.0742
      4 C         139.8857  144.5769  156.8684 C.ar    1  UNL1        0.0063
      5 C         138.9107  144.1631  155.8064 C.ar    1  UNL1        0.0003
      6 C         137.8651  143.1310  156.1091 C.ar    1  UNL1        0.0015
      7 C         137.7946  142.5128  157.4739 C.ar    1  UNL1        0.0193
      8 C         138.7696  142.9267  158.5360 C.ar    1  UNL1        0.0875
      9 N         138.6991  142.3084  159.9009 N.ar    1  UNL1       -0.2277
     10 C         139.6741  142.7223  160.9630 C.ar    1  UNL1        0.1498
     11 N         140.7196  143.7544  160.6602 N.ar    1  UNL1       -0.2592
     12 C         139.6036  142.1041  162.3279 C.ar    1  UNL1        0.0347
     13 C         138.6015  142.6029  163.3263 C.ar    1  UNL1        0.0061
     14 C         138.5309  141.9848  164.6912 C.ar    1  UNL1        0.0370
     15 C         139.4625  140.8677  165.0576 C.ar    1  UNL1        0.1386
     16 C         140.4647  140.3689  164.0592 C.ar    1  UNL1        0.0370
     17 C         140.5352  140.9870  162.6943 C.ar    1  UNL1        0.0061
     18 O         139.3920  140.2495  166.4225 O.3     1  UNL1       -0.4754
     19 C         139.8438  141.0278  167.6226 C.3     1  UNL1        0.2068
     20 C         140.8356  142.1418  167.4642 C.3     1  UNL1        0.0646
     21 C         142.3048  141.8591  167.5723 C.3     1  UNL1        0.0759
     22 N         142.9735  140.9702  166.5660 N.3     1  UNL1       -0.2726
     23 C         143.6625  141.5699  165.3762 C.3     1  UNL1        0.0721
     24 C         144.3312  140.6810  164.3698 C.3     1  UNL1        0.0174
     25 C         144.3109  139.1924  164.5534 C.3     1  UNL1        0.0029
     26 C         143.6220  138.5927  165.7432 C.3     1  UNL1        0.0174
     27 C         142.9532  139.4816  166.7495 C.3     1  UNL1        0.0721
     28 C         141.6947  144.1682  161.7224 C.ar    1  UNL1        0.0682
     29 C         141.2632  145.1025  162.8137 C.ar    1  UNL1        0.0177
     30 C         142.2382  145.5163  163.8757 C.ar    1  UNL1        0.0015
     31 C         143.6447  144.9958  163.8466 C.ar    1  UNL1        0.0001
     32 C         144.0762  144.0615  162.7553 C.ar    1  UNL1        0.0015
     33 C         143.1012  143.6477  161.6932 C.ar    1  UNL1        0.0177
@<TRIPOS>BOND
     1     1     2    2
     2     2     3   ar
     3     3     4   ar
     4     4     5   ar
     5     5     6   ar
     6     6     7   ar
     7     7     8   ar
     8     8     9   ar
     9     9    10   ar
    10    10    12    1
    11    12    13   ar
    12    13    14   ar
    13    14    15   ar
    14    15    18    1
    15    18    19    1
    16    19    20    1
    17    20    21    1
    18    21    22    1
    19    22    23    1
    20    23    24    1
    21    24    25    1
    22    25    26    1
    23    26    27    1
    24    15    16   ar
    25    16    17   ar
    26    10    11   ar
    27    11    28    1
    28    28    29   ar
    29    29    30   ar
    30    30    31   ar
    31    31    32   ar
    32    32    33   ar
    33    11     2   ar
    34    33    28   ar
    35     8     3   ar
    36    17    12   ar
    37    27    22    1
@<TRIPOS>MOLECULE
*****
 33 37 0 0 0
SMALL
GASTEIGER

@<TRIPOS>ATOM
      1 O         139.8240  146.2798  160.5575 O.2     1  UNL1       -0.2665
      2 C         139.9136  144.8872  160.0072 C.ar    1  UNL1        0.2672
      3 C         140.1904  144.6736  158.5484 C.ar    1  UNL1        0.0742
      4 C         140.3775  145.8525  157.6401 C.ar    1  UNL1        0.0063
      5 C         140.6542  145.6389  156.1814 C.ar    1  UNL1        0.0003
      6 C         140.7438  144.2464  155.6311 C.ar    1  UNL1        0.0015
      7 C         140.5567  143.0675  156.5395 C.ar    1  UNL1        0.0193
      8 C         140.2800  143.2811  157.9981 C.ar    1  UNL1        0.0875
      9 N         140.0928  142.1022  158.9066 N.ar    1  UNL1       -0.2277
     10 C         139.8160  142.3158  160.3652 C.ar    1  UNL1        0.1498
     11 N         139.7265  143.7083  160.9155 N.ar    1  UNL1       -0.2592
     12 C         139.6289  141.1369  161.2737 C.ar    1  UNL1        0.0347
     13 C         140.8128  140.5255  161.9625 C.ar    1  UNL1        0.0061
     14 C         140.6257  139.3466  162.8709 C.ar    1  UNL1        0.0370
     15 C         139.2547  138.7792  163.0904 C.ar    1  UNL1        0.1386
     16 C         138.0707  139.3906  162.4016 C.ar    1  UNL1        0.0370
     17 C         138.2579  140.5694  161.4932 C.ar    1  UNL1        0.0061
     18 O         139.0675  137.6002  163.9989 O.3     1  UNL1       -0.4754
     19 C         138.5736  137.8044  165.4004 C.3     1  UNL1        0.2068
     20 C         138.6330  139.1665  166.0256 C.3     1  UNL1        0.0646
     21 C         139.9393  139.7038  166.5304 C.3     1  UNL1        0.0759
     22 N         139.9633  140.6343  167.7067 N.3     1  UNL1       -0.2726
     23 C         139.3437  140.2156  169.0070 C.3     1  UNL1        0.0721
     24 C         139.3677  141.1461  170.1833 C.3     1  UNL1        0.0174
     25 C         140.0114  142.4953  170.0592 C.3     1  UNL1        0.0029
     26 C         140.6310  142.9140  168.7589 C.3     1  UNL1        0.0174
     27 C         140.6070  141.9835  167.5827 C.3     1  UNL1        0.0721
     28 C         139.4497  143.9219  162.3743 C.ar    1  UNL1        0.0682
     29 C         140.5879  144.0833  163.3378 C.ar    1  UNL1        0.0177
     30 C         140.3111  144.2969  164.7965 C.ar    1  UNL1        0.0015
     31 C         138.8961  144.3491  165.2916 C.ar    1  UNL1        0.0001
     32 C         137.7579  144.1877  164.3280 C.ar    1  UNL1        0.0015
     33 C         138.0347  143.9742  162.8694 C.ar    1  UNL1        0.0177
@<TRIPOS>BOND
     1     1     2    2
     2     2     3   ar
     3     3     4   ar
     4     4     5   ar
     5     5     6   ar
     6     6     7   ar
     7     7     8   ar
     8     8     9   ar
     9     9    10   ar
    10    10    12    1
    11    12    13   ar
    12    13    14   ar
    13    14    15   ar
    14    15    18    1
    15    18    19    1
    16    19    20    1
    17    20    21    1
    18    21    22    1
    19    22    23    1
    20    23    24    1
    21    24    25    1
    22    25    26    1
    23    26    27    1
    24    15    16   ar
    25    16    17   ar
    26    10    11   ar
    27    11    28    1
    28    28    29   ar
    29    29    30   ar
    30    30    31   ar
    31    31    32   ar
    32    32    33   ar
    33    11     2   ar
    34    33    28   ar
    35     8     3   ar
    36    17    12   ar
    37    27    22    1
@<TRIPOS>MOLECULE
*****
 33 37 0 0 0
SMALL
GASTEIGER

@<TRIPOS>ATOM
      1 O         143.5957  137.3561  157.2173 O.2     1  UNL1       -0.2665
      2 C         142.1249  137.6361  157.1266 C.ar    1  UNL1        0.2672
      3 C         141.3586  137.2323  155.9019 C.ar    1  UNL1        0.0742
      4 C         142.0632  136.5484  154.7680 C.ar    1  UNL1        0.0063
      5 C         141.2970  136.1446  153.5434 C.ar    1  UNL1        0.0003
      6 C         139.8261  136.4246  153.4527 C.ar    1  UNL1        0.0015
      7 C         139.1215  137.1084  154.5866 C.ar    1  UNL1        0.0193
      8 C         139.8878  137.5123  155.8113 C.ar    1  UNL1        0.0875
      9 N         139.1832  138.1961  156.9453 N.ar    1  UNL1       -0.2277
     10 C         139.9494  138.6000  158.1699 C.ar    1  UNL1        0.1498
     11 N         141.4203  138.3199  158.2606 N.ar    1  UNL1       -0.2592
     12 C         139.2448  139.2838  159.3039 C.ar    1  UNL1        0.0347
     13 C         138.8215  138.4959  160.5081 C.ar    1  UNL1        0.0061
     14 C         138.1170  139.1797  161.6421 C.ar    1  UNL1        0.0370
     15 C         137.8357  140.6514  161.5719 C.ar    1  UNL1        0.1386
     16 C         138.2590  141.4393  160.3678 C.ar    1  UNL1        0.0370
     17 C         138.9636  140.7555  159.2338 C.ar    1  UNL1        0.0061
     18 O         137.1311  141.3353  162.7060 O.3     1  UNL1       -0.4754
     19 C         137.6253  142.6603  163.2060 C.3     1  UNL1        0.2068
     20 C         138.0291  142.8168  164.6421 C.3     1  UNL1        0.0646
     21 C         139.2684  142.1418  165.1506 C.3     1  UNL1        0.0759
     22 N         139.4032  140.6509  165.0553 N.3     1  UNL1       -0.2726
     23 C         140.5860  140.0479  164.3571 C.3     1  UNL1        0.0721
     24 C         140.7208  138.5570  164.2618 C.3     1  UNL1        0.0174
     25 C         139.6729  137.6691  164.8647 C.3     1  UNL1        0.0029
     26 C         138.4901  138.2721  165.5629 C.3     1  UNL1        0.0174
     27 C         138.3553  139.7630  165.6582 C.3     1  UNL1        0.0721
     28 C         142.1865  138.7238  159.4853 C.ar    1  UNL1        0.0682
     29 C         142.6360  140.1449  159.6541 C.ar    1  UNL1        0.0177
     30 C         143.4022  140.5486  160.8787 C.ar    1  UNL1        0.0015
     31 C         143.7189  139.5314  161.9346 C.ar    1  UNL1        0.0001
     32 C         143.2694  138.1104  161.7659 C.ar    1  UNL1        0.0015
     33 C         142.5032  137.7066  160.5412 C.ar    1  UNL1        0.0177
@<TRIPOS>BOND
     1     1     2    2
     2     2     3   ar
     3     3     4   ar
     4     4     5   ar
     5     5     6   ar
     6     6     7   ar
     7     7     8   ar
     8     8     9   ar
     9     9    10   ar
    10    10    12    1
    11    12    13   ar
    12    13    14   ar
    13    14    15   ar
    14    15    18    1
    15    18    19    1
    16    19    20    1
    17    20    21    1
    18    21    22    1
    19    22    23    1
    20    23    24    1
    21    24    25    1
    22    25    26    1
    23    26    27    1
    24    15    16   ar
    25    16    17   ar
    26    10    11   ar
    27    11    28    1
    28    28    29   ar
    29    29    30   ar
    30    30    31   ar
    31    31    32   ar
    32    32    33   ar
    33    11     2   ar
    34    33    28   ar
    35     8     3   ar
    36    17    12   ar
    37    27    22    1
@<TRIPOS>MOLECULE
*****
 33 37 0 0 0
SMALL
GASTEIGER

@<TRIPOS>ATOM
      1 O         142.6539  144.2767  158.9021 O.2     1  UNL1       -0.2665
      2 C         142.9182  142.8206  159.1467 C.ar    1  UNL1        0.2672
      3 C         143.0788  141.8824  157.9873 C.ar    1  UNL1        0.0742
      4 C         142.9751  142.4004  156.5834 C.ar    1  UNL1        0.0063
      5 C         143.1358  141.4622  155.4242 C.ar    1  UNL1        0.0003
      6 C         143.4001  140.0061  155.6688 C.ar    1  UNL1        0.0015
      7 C         143.5037  139.4881  157.0726 C.ar    1  UNL1        0.0193
      8 C         143.3431  140.4263  158.2319 C.ar    1  UNL1        0.0875
      9 N         143.4468  139.9084  159.6359 N.ar    1  UNL1       -0.2277
     10 C         143.2862  140.8465  160.7952 C.ar    1  UNL1        0.1498
     11 N         143.0219  142.3027  160.5506 N.ar    1  UNL1       -0.2592
     12 C         143.3898  140.3286  162.1992 C.ar    1  UNL1        0.0347
     13 C         144.7148  140.3279  162.9023 C.ar    1  UNL1        0.0061
     14 C         144.8185  139.8100  164.3062 C.ar    1  UNL1        0.0370
     15 C         143.5973  139.2928  165.0069 C.ar    1  UNL1        0.1386
     16 C         142.2723  139.2935  164.3038 C.ar    1  UNL1        0.0370
     17 C         142.1686  139.8114  162.8999 C.ar    1  UNL1        0.0061
     18 O         143.7010  138.7749  166.4109 O.3     1  UNL1       -0.4754
     19 C         142.7478  139.2613  167.4621 C.3     1  UNL1        0.2068
     20 C         142.5193  140.7325  167.6443 C.3     1  UNL1        0.0646
     21 C         141.1227  141.2643  167.7733 C.3     1  UNL1        0.0759
     22 N         140.1044  140.9623  166.7142 N.3     1  UNL1       -0.2726
     23 C         139.9465  141.8837  165.5411 C.3     1  UNL1        0.0721
     24 C         138.9280  141.5816  164.4820 C.3     1  UNL1        0.0174
     25 C         138.0676  140.3583  164.5960 C.3     1  UNL1        0.0029
     26 C         138.2256  139.4369  165.7691 C.3     1  UNL1        0.0174
     27 C         139.2439  139.7389  166.8282 C.3     1  UNL1        0.0721
     28 C         142.8612  143.2409  161.7100 C.ar    1  UNL1        0.0682
     29 C         144.0634  143.9161  162.3005 C.ar    1  UNL1        0.0177
     30 C         143.9027  144.8542  163.4598 C.ar    1  UNL1        0.0015
     31 C         142.5399  145.1171  164.0286 C.ar    1  UNL1        0.0001
     32 C         141.3377  144.4419  163.4380 C.ar    1  UNL1        0.0015
     33 C         141.4984  143.5038  162.2787 C.ar    1  UNL1        0.0177
@<TRIPOS>BOND
     1     1     2    2
     2     2     3   ar
     3     3     4   ar
     4     4     5   ar
     5     5     6   ar
     6     6     7   ar
     7     7     8   ar
     8     8     9   ar
     9     9    10   ar
    10    10    12    1
    11    12    13   ar
    12    13    14   ar
    13    14    15   ar
    14    15    18    1
    15    18    19    1
    16    19    20    1
    17    20    21    1
    18    21    22    1
    19    22    23    1
    20    23    24    1
    21    24    25    1
    22    25    26    1
    23    26    27    1
    24    15    16   ar
    25    16    17   ar
    26    10    11   ar
    27    11    28    1
    28    28    29   ar
    29    29    30   ar
    30    30    31   ar
    31    31    32   ar
    32    32    33   ar
    33    11     2   ar
    34    33    28   ar
    35     8     3   ar
    36    17    12   ar
    37    27    22    1
@<TRIPOS>MOLECULE
*****
 33 37 0 0 0
SMALL
GASTEIGER

@<TRIPOS>ATOM
      1 O         138.7965  138.6749  166.6350 O.2     1  UNL1       -0.2665
      2 C         139.3982  140.0389  166.4698 C.ar    1  UNL1        0.2672
      3 C         139.6965  140.8782  167.6768 C.ar    1  UNL1        0.0742
      4 C         139.3930  140.3534  169.0488 C.ar    1  UNL1        0.0063
      5 C         139.6913  141.1927  170.2557 C.ar    1  UNL1        0.0003
      6 C         140.2931  142.5568  170.0906 C.ar    1  UNL1        0.0015
      7 C         140.5965  143.0815  168.7185 C.ar    1  UNL1        0.0193
      8 C         140.2982  142.2423  167.5117 C.ar    1  UNL1        0.0875
      9 N         140.6017  142.7670  166.1396 N.ar    1  UNL1       -0.2277
     10 C         140.3034  141.9278  164.9327 C.ar    1  UNL1        0.1498
     11 N         139.7016  140.5637  165.0978 N.ar    1  UNL1       -0.2592
     12 C         140.6068  142.4525  163.5606 C.ar    1  UNL1        0.0347
     13 C         139.5921  143.2854  162.8348 C.ar    1  UNL1        0.0061
     14 C         139.8955  143.8101  161.4627 C.ar    1  UNL1        0.0370
     15 C         141.2136  143.5021  160.8165 C.ar    1  UNL1        0.1386
     16 C         142.2283  142.6692  161.5423 C.ar    1  UNL1        0.0370
     17 C         141.9249  142.1445  162.9143 C.ar    1  UNL1        0.0061
     18 O         141.5170  144.0268  159.4444 O.3     1  UNL1       -0.4754
     19 C         142.8193  143.6866  158.7823 C.3     1  UNL1        0.2068
     20 C         142.9689  142.3895  158.0440 C.3     1  UNL1        0.0646
     21 C         144.0673  141.4377  158.4151 C.3     1  UNL1        0.0759
     22 N         143.7352  140.1211  159.0526 N.3     1  UNL1       -0.2726
     23 C         144.1520  139.8464  160.4671 C.3     1  UNL1        0.0721
     24 C         143.8199  138.5298  161.1046 C.3     1  UNL1        0.0174
     25 C         143.0711  137.4879  160.3276 C.3     1  UNL1        0.0029
     26 C         142.6544  137.7626  158.9131 C.3     1  UNL1        0.0174
     27 C         142.9864  139.0792  158.2756 C.3     1  UNL1        0.0721
     28 C         139.4033  139.7244  163.8909 C.ar    1  UNL1        0.0682
     29 C         138.1218  139.9233  163.1372 C.ar    1  UNL1        0.0177
     30 C         137.8236  139.0840  161.9303 C.ar    1  UNL1        0.0015
     31 C         138.8069  138.0459  161.4771 C.ar    1  UNL1        0.0001
     32 C         140.0884  137.8471  162.2307 C.ar    1  UNL1        0.0015
     33 C         140.3867  138.6863  163.4376 C.ar    1  UNL1        0.0177
@<TRIPOS>BOND
     1     1     2    2
     2     2     3   ar
     3     3     4   ar
     4     4     5   ar
     5     5     6   ar
     6     6     7   ar
     7     7     8   ar
     8     8     9   ar
     9     9    10   ar
    10    10    12    1
    11    12    13   ar
    12    13    14   ar
    13    14    15   ar
    14    15    18    1
    15    18    19    1
    16    19    20    1
    17    20    21    1
    18    21    22    1
    19    22    23    1
    20    23    24    1
    21    24    25    1
    22    25    26    1
    23    26    27    1
    24    15    16   ar
    25    16    17   ar
    26    10    11   ar
    27    11    28    1
    28    28    29   ar
    29    29    30   ar
    30    30    31   ar
    31    31    32   ar
    32    32    33   ar
    33    11     2   ar
    34    33    28   ar
    35     8     3   ar
    36    17    12   ar
    37    27    22    1
