@<TRIPOS>MOLECULE
*****
 30 33 0 0 0
SMALL
GASTEIGER

@<TRIPOS>ATOM
      1 C         138.4968  145.2475  162.4959 C.3     1  UNL1        0.0281
      2 C         139.4874  144.1739  162.1550 C.3     1  UNL1        0.1170
      3 C         140.1615  144.1733  160.8150 C.ar    1  UNL1        0.0908
      4 N         140.0517  145.0939  159.6359 N.ar    1  UNL1       -0.2267
      5 C         140.9744  144.5893  158.5664 C.ar    1  UNL1        0.1845
      6 N         141.6545  143.3568  159.0845 N.ar    1  UNL1       -0.2613
      7 C         141.1520  143.0997  160.4742 C.ar    1  UNL1        0.0624
      8 C         141.4685  142.0266  161.4734 C.3     1  UNL1        0.0670
      9 C         140.7944  142.0272  162.8134 C.3     1  UNL1        0.1003
     10 N         139.8039  143.1008  163.1542 N.am    1  UNL1       -0.2720
     11 C         139.1298  143.1014  164.4943 C.2     1  UNL1        0.2501
     12 O         138.1393  144.1750  164.8351 O.2     1  UNL1       -0.2699
     13 C         142.6603  142.5271  158.3430 C.ar    1  UNL1        0.2380
     14 N         142.2216  141.2933  157.6113 N.ar    1  UNL1       -0.2071
     15 C         143.2275  140.4635  156.8698 C.ar    1  UNL1        0.1332
     16 C         144.6720  140.8675  156.8599 C.ar    1  UNL1        0.1784
     17 F         145.6778  140.0378  156.1185 F       1  UNL1       -0.2009
     18 C         145.1106  142.1014  157.5917 C.ar    1  UNL1        0.1332
     19 N         144.1049  142.9311  158.3332 N.ar    1  UNL1       -0.2071
     20 C         139.4463  142.0284  165.4935 C.ar    1  UNL1        0.0641
     21 C         140.4420  142.2896  166.5846 C.ar    1  UNL1        0.0054
     22 C         140.7584  141.2165  167.5838 C.ar    1  UNL1        0.0001
     23 C         140.0793  139.8823  167.4919 C.ar    1  UNL1        0.0047
     24 C         139.0835  139.6211  166.4008 C.ar    1  UNL1        0.0821
     25 C         138.7671  140.6941  165.4016 C.ar    1  UNL1        0.0659
     26 CL        137.7714  140.4328  164.3106 Cl      1  UNL1       -0.0822
     27 C         138.4044  138.2868  166.3090 C.3     1  UNL1        0.4194
     28 F         137.7252  136.9525  166.2172 F       1  UNL1       -0.1658
     29 F         137.3508  138.7571  167.2676 F       1  UNL1       -0.1658
     30 F         139.4579  137.8165  165.3504 F       1  UNL1       -0.1658
@<TRIPOS>BOND
     1     2     1    1
     2     2     3    1
     3     3     4   ar
     4     4     5   ar
     5     5     6   ar
     6     6    13    1
     7    13    14   ar
     8    14    15   ar
     9    15    16   ar
    10    16    17    1
    11    16    18   ar
    12    18    19   ar
    13     6     7   ar
    14     7     8    1
    15     8     9    1
    16     9    10    1
    17    10    11   am
    18    11    12    2
    19    11    20    1
    20    20    21   ar
    21    21    22   ar
    22    22    23   ar
    23    23    24   ar
    24    24    27    1
    25    27    28    1
    26    27    29    1
    27    27    30    1
    28    24    25   ar
    29    25    26    1
    30    10     2    1
    31    25    20   ar
    32     7     3   ar
    33    19    13   ar
@<TRIPOS>MOLECULE
*****
 30 33 0 0 0
SMALL
GASTEIGER

@<TRIPOS>ATOM
      1 C         137.9993  138.0017  162.1412 C.3     1  UNL1        0.0281
      2 C         138.9635  139.1454  162.0297 C.3     1  UNL1        0.1170
      3 C         138.9415  140.0297  160.8183 C.ar    1  UNL1        0.0908
      4 N         138.0898  140.0194  159.5836 N.ar    1  UNL1       -0.2267
      5 C         138.5277  141.1567  158.7091 C.ar    1  UNL1        0.1845
      6 N         139.6500  141.8699  159.4033 N.ar    1  UNL1       -0.2613
      7 C         139.9057  141.1733  160.7069 C.ar    1  UNL1        0.0624
      8 C         140.8919  141.4327  161.8069 C.3     1  UNL1        0.0670
      9 C         140.9140  140.5484  163.0183 C.3     1  UNL1        0.1003
     10 N         139.9498  139.4048  163.1298 N.am    1  UNL1       -0.2720
     11 C         139.9719  138.5205  164.3413 C.2     1  UNL1        0.2501
     12 O         139.0077  137.3769  164.4527 O.2     1  UNL1       -0.2699
     13 C         140.3870  143.0690  158.8849 C.ar    1  UNL1        0.2380
     14 N         141.8185  142.9415  158.4552 N.ar    1  UNL1       -0.2071
     15 C         142.5557  144.1407  157.9368 C.ar    1  UNL1        0.1332
     16 C         141.8613  145.4673  157.8481 C.ar    1  UNL1        0.1784
     17 F         142.5984  146.6664  157.3297 F       1  UNL1       -0.2009
     18 C         140.4298  145.5947  158.2778 C.ar    1  UNL1        0.1332
     19 N         139.6927  144.3957  158.7962 N.ar    1  UNL1       -0.2071
     20 C         140.9581  138.7799  165.4413 C.ar    1  UNL1        0.0641
     21 C         142.3376  138.1956  165.3649 C.ar    1  UNL1        0.0054
     22 C         143.3238  138.4550  166.4650 C.ar    1  UNL1        0.0001
     23 C         142.9306  139.2986  167.6413 C.ar    1  UNL1        0.0047
     24 C         141.5511  139.8829  167.7176 C.ar    1  UNL1        0.0821
     25 C         140.5649  139.6235  166.6176 C.ar    1  UNL1        0.0659
     26 CL        139.1855  140.2078  166.6939 Cl      1  UNL1       -0.0822
     27 C         141.1580  140.7265  168.8939 C.3     1  UNL1        0.4194
     28 F         140.7648  141.5701  170.0703 F       1  UNL1       -0.1658
     29 F         140.5985  139.5137  169.5767 F       1  UNL1       -0.1658
     30 F         141.7174  141.9393  168.2112 F       1  UNL1       -0.1658
@<TRIPOS>BOND
     1     2     1    1
     2     2     3    1
     3     3     4   ar
     4     4     5   ar
     5     5     6   ar
     6     6    13    1
     7    13    14   ar
     8    14    15   ar
     9    15    16   ar
    10    16    17    1
    11    16    18   ar
    12    18    19   ar
    13     6     7   ar
    14     7     8    1
    15     8     9    1
    16     9    10    1
    17    10    11   am
    18    11    12    2
    19    11    20    1
    20    20    21   ar
    21    21    22   ar
    22    22    23   ar
    23    23    24   ar
    24    24    27    1
    25    27    28    1
    26    27    29    1
    27    27    30    1
    28    24    25   ar
    29    25    26    1
    30    10     2    1
    31    25    20   ar
    32     7     3   ar
    33    19    13   ar
@<TRIPOS>MOLECULE
*****
 30 33 0 0 0
SMALL
GASTEIGER

@<TRIPOS>ATOM
      1 C         139.1732  145.5033  162.4769 C.3     1  UNL1        0.0281
      2 C         139.9254  144.2795  162.0448 C.3     1  UNL1        0.1170
      3 C         140.7280  144.3009  160.7778 C.ar    1  UNL1        0.0908
      4 N         140.9640  145.3745  159.7572 N.ar    1  UNL1       -0.2267
      5 C         141.8620  144.8143  158.6943 C.ar    1  UNL1        0.1845
      6 N         142.1810  143.3944  159.0580 N.ar    1  UNL1       -0.2613
      7 C         141.4802  143.0771  160.3457 C.ar    1  UNL1        0.0624
      8 C         141.4297  141.8320  161.1806 C.3     1  UNL1        0.0670
      9 C         140.6271  141.8106  162.4476 C.3     1  UNL1        0.1003
     10 N         139.8750  143.0343  162.8797 N.am    1  UNL1       -0.2720
     11 C         139.0723  143.0129  164.1468 C.2     1  UNL1        0.2501
     12 O         138.3201  144.2367  164.5788 O.2     1  UNL1       -0.2699
     13 C         143.0486  142.4566  158.2720 C.ar    1  UNL1        0.2380
     14 N         144.4899  142.7937  158.0294 N.ar    1  UNL1       -0.2071
     15 C         145.3576  141.8559  157.2434 C.ar    1  UNL1        0.1332
     16 C         144.7838  140.5810  156.7000 C.ar    1  UNL1        0.1784
     17 F         145.6514  139.6431  155.9141 F       1  UNL1       -0.2009
     18 C         143.3424  140.2439  156.9427 C.ar    1  UNL1        0.1332
     19 N         142.4748  141.1816  157.7286 N.ar    1  UNL1       -0.2071
     20 C         139.0218  141.7678  164.9817 C.ar    1  UNL1        0.0641
     21 C         138.1359  140.6277  164.5752 C.ar    1  UNL1        0.0054
     22 C         138.0855  139.3825  165.4102 C.ar    1  UNL1        0.0001
     23 C         138.9209  139.2775  166.6515 C.ar    1  UNL1        0.0047
     24 C         139.8068  140.4178  167.0580 C.ar    1  UNL1        0.0821
     25 C         139.8573  141.6629  166.2231 C.ar    1  UNL1        0.0659
     26 CL        140.7432  142.8030  166.6296 Cl      1  UNL1       -0.0822
     27 C         140.6423  140.3128  168.2994 C.3     1  UNL1        0.4194
     28 F         141.4777  140.2078  169.5408 F       1  UNL1       -0.1658
     29 F         139.5471  140.9634  169.0914 F       1  UNL1       -0.1658
     30 F         141.7374  139.6622  167.5073 F       1  UNL1       -0.1658
@<TRIPOS>BOND
     1     2     1    1
     2     2     3    1
     3     3     4   ar
     4     4     5   ar
     5     5     6   ar
     6     6    13    1
     7    13    14   ar
     8    14    15   ar
     9    15    16   ar
    10    16    17    1
    11    16    18   ar
    12    18    19   ar
    13     6     7   ar
    14     7     8    1
    15     8     9    1
    16     9    10    1
    17    10    11   am
    18    11    12    2
    19    11    20    1
    20    20    21   ar
    21    21    22   ar
    22    22    23   ar
    23    23    24   ar
    24    24    27    1
    25    27    28    1
    26    27    29    1
    27    27    30    1
    28    24    25   ar
    29    25    26    1
    30    10     2    1
    31    25    20   ar
    32     7     3   ar
    33    19    13   ar
@<TRIPOS>MOLECULE
*****
 30 33 0 0 0
SMALL
GASTEIGER

@<TRIPOS>ATOM
      1 C         144.4814  139.0058  163.7233 C.3     1  UNL1        0.0281
      2 C         143.4803  140.0814  163.4217 C.3     1  UNL1        0.1170
      3 C         143.4513  140.7200  162.0648 C.ar    1  UNL1        0.0908
      4 N         144.2786  140.4983  160.8333 N.ar    1  UNL1       -0.2267
      5 C         143.7887  141.4369  159.7707 C.ar    1  UNL1        0.1845
      6 N         142.6587  142.2387  160.3455 N.ar    1  UNL1       -0.2613
      7 C         142.4501  141.7956  161.7633 C.ar    1  UNL1        0.0624
      8 C         141.4780  142.2325  162.8187 C.3     1  UNL1        0.0670
      9 C         141.5069  141.5939  164.1756 C.3     1  UNL1        0.1003
     10 N         142.5080  140.5184  164.4771 N.am    1  UNL1       -0.2720
     11 C         142.5370  139.8797  165.8342 C.2     1  UNL1        0.2501
     12 O         143.5381  138.8041  166.1357 O.2     1  UNL1       -0.2699
     13 C         141.8749  143.2975  159.6283 C.ar    1  UNL1        0.2380
     14 N         141.8313  144.6952  160.1710 N.ar    1  UNL1       -0.2071
     15 C         141.0474  145.7542  159.4538 C.ar    1  UNL1        0.1332
     16 C         140.3072  145.4154  158.1940 C.ar    1  UNL1        0.1784
     17 F         139.5234  146.4743  157.4768 F       1  UNL1       -0.2009
     18 C         140.3509  144.0177  157.6513 C.ar    1  UNL1        0.1332
     19 N         141.1346  142.9588  158.3684 N.ar    1  UNL1       -0.2071
     20 C         141.5648  140.3166  166.8896 C.ar    1  UNL1        0.0641
     21 C         140.3167  139.5216  167.1350 C.ar    1  UNL1        0.0054
     22 C         139.3446  139.9586  168.1905 C.ar    1  UNL1        0.0001
     23 C         139.6205  141.1905  169.0005 C.ar    1  UNL1        0.0047
     24 C         140.8687  141.9855  168.7551 C.ar    1  UNL1        0.0821
     25 C         141.8408  141.5486  167.6996 C.ar    1  UNL1        0.0659
     26 CL        143.0889  142.3436  167.4543 Cl      1  UNL1       -0.0822
     27 C         141.1446  143.2175  169.5651 C.3     1  UNL1        0.4194
     28 F         141.4205  144.4494  170.3752 F       1  UNL1       -0.1658
     29 F         140.1196  143.9702  168.7696 F       1  UNL1       -0.1658
     30 F         142.1695  142.4648  170.3607 F       1  UNL1       -0.1658
@<TRIPOS>BOND
     1     2     1    1
     2     2     3    1
     3     3     4   ar
     4     4     5   ar
     5     5     6   ar
     6     6    13    1
     7    13    14   ar
     8    14    15   ar
     9    15    16   ar
    10    16    17    1
    11    16    18   ar
    12    18    19   ar
    13     6     7   ar
    14     7     8    1
    15     8     9    1
    16     9    10    1
    17    10    11   am
    18    11    12    2
    19    11    20    1
    20    20    21   ar
    21    21    22   ar
    22    22    23   ar
    23    23    24   ar
    24    24    27    1
    25    27    28    1
    26    27    29    1
    27    27    30    1
    28    24    25   ar
    29    25    26    1
    30    10     2    1
    31    25    20   ar
    32     7     3   ar
    33    19    13   ar
@<TRIPOS>MOLECULE
*****
 30 33 0 0 0
SMALL
GASTEIGER

@<TRIPOS>ATOM
      1 C         143.7547  137.9083  160.9319 C.3     1  UNL1        0.0281
      2 C         142.3735  138.1341  160.3921 C.3     1  UNL1        0.1170
      3 C         142.1158  138.0189  158.9189 C.ar    1  UNL1        0.0908
      4 N         143.0181  137.6986  157.7643 N.ar    1  UNL1       -0.2267
      5 C         142.1945  137.7265  156.5109 C.ar    1  UNL1        0.1845
      6 N         140.7833  138.0640  156.8910 N.ar    1  UNL1       -0.2613
      7 C         140.7346  138.2447  158.3792 C.ar    1  UNL1        0.0624
      8 C         139.6111  138.5858  159.3127 C.3     1  UNL1        0.0670
      9 C         139.8688  138.7010  160.7859 C.3     1  UNL1        0.1003
     10 N         141.2499  138.4752  161.3256 N.am    1  UNL1       -0.2720
     11 C         141.5076  138.5904  162.7989 C.2     1  UNL1        0.2501
     12 O         142.8888  138.3646  163.3386 O.2     1  UNL1       -0.2699
     13 C         139.6242  138.1974  155.9482 C.ar    1  UNL1        0.2380
     14 N         139.3780  137.1444  154.9087 N.ar    1  UNL1       -0.2071
     15 C         138.2188  137.2777  153.9659 C.ar    1  UNL1        0.1332
     16 C         137.3060  138.4640  154.0627 C.ar    1  UNL1        0.1784
     17 F         136.1469  138.5973  153.1200 F       1  UNL1       -0.2009
     18 C         137.5523  139.5170  155.1023 C.ar    1  UNL1        0.1332
     19 N         138.7113  139.3837  156.0450 N.ar    1  UNL1       -0.2071
     20 C         140.3841  138.9315  163.7324 C.ar    1  UNL1        0.0641
     21 C         139.7596  137.8607  164.5770 C.ar    1  UNL1        0.0054
     22 C         138.6360  138.2018  165.5105 C.ar    1  UNL1        0.0001
     23 C         138.1371  139.6135  165.5993 C.ar    1  UNL1        0.0047
     24 C         138.7617  140.6844  164.7546 C.ar    1  UNL1        0.0821
     25 C         139.8852  140.3433  163.8212 C.ar    1  UNL1        0.0659
     26 CL        140.5098  141.4141  162.9765 Cl      1  UNL1       -0.0822
     27 C         138.2628  142.0962  164.8435 C.3     1  UNL1        0.4194
     28 F         137.7638  143.5080  164.9324 F       1  UNL1       -0.1658
     29 F         137.2322  141.7979  163.7952 F       1  UNL1       -0.1658
     30 F         139.2933  142.3944  165.8918 F       1  UNL1       -0.1658
@<TRIPOS>BOND
     1     2     1    1
     2     2     3    1
     3     3     4   ar
     4     4     5   ar
     5     5     6   ar
     6     6    13    1
     7    13    14   ar
     8    14    15   ar
     9    15    16   ar
    10    16    17    1
    11    16    18   ar
    12    18    19   ar
    13     6     7   ar
    14     7     8    1
    15     8     9    1
    16     9    10    1
    17    10    11   am
    18    11    12    2
    19    11    20    1
    20    20    21   ar
    21    21    22   ar
    22    22    23   ar
    23    23    24   ar
    24    24    27    1
    25    27    28    1
    26    27    29    1
    27    27    30    1
    28    24    25   ar
    29    25    26    1
    30    10     2    1
    31    25    20   ar
    32     7     3   ar
    33    19    13   ar
@<TRIPOS>MOLECULE
*****
 30 33 0 0 0
SMALL
GASTEIGER

@<TRIPOS>ATOM
      1 C         143.6007  141.7198  159.3951 C.3     1  UNL1        0.0281
      2 C         143.2940  140.2562  159.5132 C.3     1  UNL1        0.1170
      3 C         143.2098  139.4055  158.2807 C.ar    1  UNL1        0.0908
      4 N         143.3807  139.7273  156.8256 N.ar    1  UNL1       -0.2267
      5 C         143.1795  138.4626  156.0445 C.ar    1  UNL1        0.1845
      6 N         142.8843  137.3592  157.0169 N.ar    1  UNL1       -0.2613
      7 C         142.9031  137.9420  158.3989 C.ar    1  UNL1        0.0624
      8 C         142.6805  137.3291  159.7498 C.3     1  UNL1        0.0670
      9 C         142.7646  138.1798  160.9823 C.3     1  UNL1        0.1003
     10 N         143.0713  139.6432  160.8641 N.am    1  UNL1       -0.2720
     11 C         143.1555  140.4939  162.0968 C.2     1  UNL1        0.2501
     12 O         143.4622  141.9574  161.9785 O.2     1  UNL1       -0.2699
     13 C         142.6173  135.9249  156.6684 C.ar    1  UNL1        0.2380
     14 N         143.3705  134.8310  157.3656 N.ar    1  UNL1       -0.2071
     15 C         143.1035  133.3966  157.0171 C.ar    1  UNL1        0.1332
     16 C         142.0834  133.0562  155.9715 C.ar    1  UNL1        0.1784
     17 F         141.8164  131.6219  155.6229 F       1  UNL1       -0.2009
     18 C         141.3302  134.1502  155.2743 C.ar    1  UNL1        0.1332
     19 N         141.5972  135.5845  155.6227 N.ar    1  UNL1       -0.2071
     20 C         142.9328  139.8810  163.4476 C.ar    1  UNL1        0.0641
     21 C         144.0970  139.3539  164.2331 C.ar    1  UNL1        0.0054
     22 C         143.8743  138.7410  165.5840 C.ar    1  UNL1        0.0001
     23 C         142.4876  138.6552  166.1493 C.ar    1  UNL1        0.0047
     24 C         141.3235  139.1824  165.3638 C.ar    1  UNL1        0.0821
     25 C         141.5461  139.7953  164.0130 C.ar    1  UNL1        0.0659
     26 CL        140.3820  140.3224  163.2275 Cl      1  UNL1       -0.0822
     27 C         139.9367  139.0966  165.9292 C.3     1  UNL1        0.4194
     28 F         138.5500  139.0109  166.4946 F       1  UNL1       -0.1658
     29 F         140.1095  140.4475  166.5580 F       1  UNL1       -0.1658
     30 F         139.7639  137.7458  165.3005 F       1  UNL1       -0.1658
@<TRIPOS>BOND
     1     2     1    1
     2     2     3    1
     3     3     4   ar
     4     4     5   ar
     5     5     6   ar
     6     6    13    1
     7    13    14   ar
     8    14    15   ar
     9    15    16   ar
    10    16    17    1
    11    16    18   ar
    12    18    19   ar
    13     6     7   ar
    14     7     8    1
    15     8     9    1
    16     9    10    1
    17    10    11   am
    18    11    12    2
    19    11    20    1
    20    20    21   ar
    21    21    22   ar
    22    22    23   ar
    23    23    24   ar
    24    24    27    1
    25    27    28    1
    26    27    29    1
    27    27    30    1
    28    24    25   ar
    29    25    26    1
    30    10     2    1
    31    25    20   ar
    32     7     3   ar
    33    19    13   ar
@<TRIPOS>MOLECULE
*****
 30 33 0 0 0
SMALL
GASTEIGER

@<TRIPOS>ATOM
      1 C         138.7571  137.9425  161.5213 C.3     1  UNL1        0.0281
      2 C         140.0716  138.6584  161.4234 C.3     1  UNL1        0.1170
      3 C         140.6508  138.9827  160.0783 C.ar    1  UNL1        0.0908
      4 N         140.1588  138.7245  158.6850 N.ar    1  UNL1       -0.2267
      5 C         141.1692  139.2809  157.7261 C.ar    1  UNL1        0.1845
      6 N         142.2857  139.8829  158.5268 N.ar    1  UNL1       -0.2613
      7 C         141.9653  139.6987  159.9805 C.ar    1  UNL1        0.0624
      8 C         142.7006  140.0903  161.2279 C.3     1  UNL1        0.0670
      9 C         142.1214  139.7660  162.5730 C.3     1  UNL1        0.1003
     10 N         140.8070  139.0501  162.6708 N.am    1  UNL1       -0.2720
     11 C         140.2279  138.7258  164.0160 C.2     1  UNL1        0.2501
     12 O         138.9134  138.0098  164.1138 O.2     1  UNL1       -0.2699
     13 C         143.5079  140.5518  157.9712 C.ar    1  UNL1        0.2380
     14 N         144.3041  139.8815  156.8910 N.ar    1  UNL1       -0.2071
     15 C         145.5265  140.5504  156.3354 C.ar    1  UNL1        0.1332
     16 C         145.9525  141.8895  156.8599 C.ar    1  UNL1        0.1784
     17 F         147.1747  142.5584  156.3044 F       1  UNL1       -0.2009
     18 C         145.1562  142.5598  157.9402 C.ar    1  UNL1        0.1332
     19 N         143.9340  141.8910  158.4958 N.ar    1  UNL1       -0.2071
     20 C         140.9632  139.1174  165.2634 C.ar    1  UNL1        0.0641
     21 C         142.2634  138.4532  165.6073 C.ar    1  UNL1        0.0054
     22 C         142.9987  138.8449  166.8547 C.ar    1  UNL1        0.0001
     23 C         142.4339  139.9007  167.7581 C.ar    1  UNL1        0.0047
     24 C         141.1336  140.5649  167.4141 C.ar    1  UNL1        0.0821
     25 C         140.3983  140.1733  166.1667 C.ar    1  UNL1        0.0659
     26 CL        139.0981  140.8375  165.8228 Cl      1  UNL1       -0.0822
     27 C         140.5687  141.6207  168.3175 C.3     1  UNL1        0.4194
     28 F         140.0039  142.6766  169.2209 F       1  UNL1       -0.1658
     29 F         141.2975  142.6761  167.5397 F       1  UNL1       -0.1658
     30 F         139.8399  140.5653  169.0953 F       1  UNL1       -0.1658
@<TRIPOS>BOND
     1     2     1    1
     2     2     3    1
     3     3     4   ar
     4     4     5   ar
     5     5     6   ar
     6     6    13    1
     7    13    14   ar
     8    14    15   ar
     9    15    16   ar
    10    16    17    1
    11    16    18   ar
    12    18    19   ar
    13     6     7   ar
    14     7     8    1
    15     8     9    1
    16     9    10    1
    17    10    11   am
    18    11    12    2
    19    11    20    1
    20    20    21   ar
    21    21    22   ar
    22    22    23   ar
    23    23    24   ar
    24    24    27    1
    25    27    28    1
    26    27    29    1
    27    27    30    1
    28    24    25   ar
    29    25    26    1
    30    10     2    1
    31    25    20   ar
    32     7     3   ar
    33    19    13   ar
@<TRIPOS>MOLECULE
*****
 30 33 0 0 0
SMALL
GASTEIGER

@<TRIPOS>ATOM
      1 C         140.5567  141.6163  157.4294 C.3     1  UNL1        0.0281
      2 C         140.5208  143.0826  157.7440 C.3     1  UNL1        0.1170
      3 C         139.9948  144.0546  156.7299 C.ar    1  UNL1        0.0908
      4 N         139.4478  143.8639  155.3463 N.ar    1  UNL1       -0.2267
      5 C         139.0740  145.2123  154.8058 C.ar    1  UNL1        0.1845
      6 N         139.3898  146.2363  155.8554 N.ar    1  UNL1       -0.2613
      7 C         139.9589  145.5208  157.0446 C.ar    1  UNL1        0.0624
      8 C         140.4491  146.0150  158.3733 C.3     1  UNL1        0.0670
      9 C         140.9752  145.0429  159.3874 C.3     1  UNL1        0.1003
     10 N         141.0110  143.5768  159.0728 N.am    1  UNL1       -0.2720
     11 C         141.5371  142.6047  160.0869 C.2     1  UNL1        0.2501
     12 O         141.5730  141.1385  159.7723 O.2     1  UNL1       -0.2699
     13 C         139.1744  147.7160  155.7366 C.ar    1  UNL1        0.2380
     14 N         139.5963  148.4377  154.4912 N.ar    1  UNL1       -0.2071
     15 C         139.3808  149.9175  154.3724 C.ar    1  UNL1        0.1332
     16 C         138.7436  150.6754  155.4990 C.ar    1  UNL1        0.1784
     17 F         138.5282  152.1551  155.3802 F       1  UNL1       -0.2009
     18 C         138.3217  149.9536  156.7445 C.ar    1  UNL1        0.1332
     19 N         138.5371  148.4740  156.8633 N.ar    1  UNL1       -0.2071
     20 C         142.0273  143.0988  161.4156 C.ar    1  UNL1        0.0641
     21 C         143.4492  143.5509  161.5696 C.ar    1  UNL1        0.0054
     22 C         143.9394  144.0451  162.8984 C.ar    1  UNL1        0.0001
     23 C         143.0077  144.0871  164.0731 C.ar    1  UNL1        0.0047
     24 C         141.5857  143.6349  163.9191 C.ar    1  UNL1        0.0821
     25 C         141.0955  143.1408  162.5904 C.ar    1  UNL1        0.0659
     26 CL        139.6736  142.6887  162.4365 Cl      1  UNL1       -0.0822
     27 C         140.6540  143.6769  165.0939 C.3     1  UNL1        0.4194
     28 F         139.7223  143.7189  166.2687 F       1  UNL1       -0.1658
     29 F         140.1022  144.9849  164.6096 F       1  UNL1       -0.1658
     30 F         141.2058  142.3689  165.5783 F       1  UNL1       -0.1658
@<TRIPOS>BOND
     1     2     1    1
     2     2     3    1
     3     3     4   ar
     4     4     5   ar
     5     5     6   ar
     6     6    13    1
     7    13    14   ar
     8    14    15   ar
     9    15    16   ar
    10    16    17    1
    11    16    18   ar
    12    18    19   ar
    13     6     7   ar
    14     7     8    1
    15     8     9    1
    16     9    10    1
    17    10    11   am
    18    11    12    2
    19    11    20    1
    20    20    21   ar
    21    21    22   ar
    22    22    23   ar
    23    23    24   ar
    24    24    27    1
    25    27    28    1
    26    27    29    1
    27    27    30    1
    28    24    25   ar
    29    25    26    1
    30    10     2    1
    31    25    20   ar
    32     7     3   ar
    33    19    13   ar
@<TRIPOS>MOLECULE
*****
 30 33 0 0 0
SMALL
GASTEIGER

@<TRIPOS>ATOM
      1 C         144.6921  142.7863  160.7821 C.3     1  UNL1        0.0281
      2 C         144.0969  141.4189  160.6211 C.3     1  UNL1        0.1170
      3 C         143.8578  140.8617  159.2491 C.ar    1  UNL1        0.0908
      4 N         144.1059  141.4232  157.8805 N.ar    1  UNL1       -0.2267
      5 C         143.6641  140.4028  156.8738 C.ar    1  UNL1        0.1845
      6 N         143.1429  139.2106  157.6202 N.ar    1  UNL1       -0.2613
      7 C         143.2626  139.4942  159.0883 C.ar    1  UNL1        0.0624
      8 C         142.9066  138.6840  160.2993 C.3     1  UNL1        0.0670
      9 C         143.1457  139.2412  161.6713 C.3     1  UNL1        0.1003
     10 N         143.7408  140.6086  161.8322 N.am    1  UNL1       -0.2720
     11 C         143.9799  141.1658  163.2043 C.2     1  UNL1        0.2501
     12 O         144.5751  142.5332  163.3652 O.2     1  UNL1       -0.2699
     13 C         142.5977  137.9553  157.0063 C.ar    1  UNL1        0.2380
     14 N         143.2975  136.6471  157.2274 N.ar    1  UNL1       -0.2071
     15 C         142.7524  135.3917  156.6135 C.ar    1  UNL1        0.1332
     16 C         141.5075  135.4445  155.7785 C.ar    1  UNL1        0.1784
     17 F         140.9623  134.1892  155.1646 F       1  UNL1       -0.2009
     18 C         140.8077  136.7528  155.5574 C.ar    1  UNL1        0.1332
     19 N         141.3528  138.0081  156.1712 N.ar    1  UNL1       -0.2071
     20 C         143.6239  140.3555  164.4154 C.ar    1  UNL1        0.0641
     21 C         144.5042  139.2186  164.8424 C.ar    1  UNL1        0.0054
     22 C         144.1481  138.4083  166.0535 C.ar    1  UNL1        0.0001
     23 C         142.9118  138.7351  166.8375 C.ar    1  UNL1        0.0047
     24 C         142.0315  139.8721  166.4104 C.ar    1  UNL1        0.0821
     25 C         142.3875  140.6823  165.1994 C.ar    1  UNL1        0.0659
     26 CL        141.5072  141.8193  164.7723 Cl      1  UNL1       -0.0822
     27 C         140.7951  140.1988  167.1945 C.3     1  UNL1        0.4194
     28 F         139.5588  140.5256  167.9786 F       1  UNL1       -0.1658
     29 F         140.0006  139.2645  166.3309 F       1  UNL1       -0.1658
     30 F         141.5897  141.1331  168.0581 F       1  UNL1       -0.1658
@<TRIPOS>BOND
     1     2     1    1
     2     2     3    1
     3     3     4   ar
     4     4     5   ar
     5     5     6   ar
     6     6    13    1
     7    13    14   ar
     8    14    15   ar
     9    15    16   ar
    10    16    17    1
    11    16    18   ar
    12    18    19   ar
    13     6     7   ar
    14     7     8    1
    15     8     9    1
    16     9    10    1
    17    10    11   am
    18    11    12    2
    19    11    20    1
    20    20    21   ar
    21    21    22   ar
    22    22    23   ar
    23    23    24   ar
    24    24    27    1
    25    27    28    1
    26    27    29    1
    27    27    30    1
    28    24    25   ar
    29    25    26    1
    30    10     2    1
    31    25    20   ar
    32     7     3   ar
    33    19    13   ar
