@<TRIPOS>MOLECULE
*****
 31 34 0 0 0
SMALL
GASTEIGER

@<TRIPOS>ATOM
      1 C         140.5762  137.0943  154.6357 C.ar    1  UNL1        0.1773
      2 C         141.3934  138.3515  154.5955 C.ar    1  UNL1        0.1402
      3 N         141.2006  139.4052  155.6456 N.ar    1  UNL1       -0.2089
      4 C         140.1908  139.2015  156.7358 C.ar    1  UNL1        0.2205
      5 N         139.3736  137.9443  156.7760 N.ar    1  UNL1       -0.2089
      6 C         139.5664  136.8907  155.7260 C.ar    1  UNL1        0.1402
      7 N         139.9980  140.2552  157.7860 N.pl3   1  UNL1       -0.2747
      8 C         138.6829  140.3730  158.4977 C.3     1  UNL1        0.1152
      9 C         138.4901  141.4266  159.5478 C.3     1  UNL1        0.1166
     10 N         139.6124  142.3624  159.8862 N.pl3   1  UNL1       -0.2589
     11 C         140.9276  142.2446  159.1745 C.3     1  UNL1        0.1166
     12 C         141.1204  141.1910  158.1244 C.3     1  UNL1        0.1152
     13 C         139.4196  143.4160  160.9363 C.ar    1  UNL1        0.3120
     14 N         139.3893  144.8975  160.7037 N.ar    1  UNL1       -0.0922
     15 N         139.1743  145.5702  162.0270 N.ar    1  UNL1       -0.1018
     16 C         139.0718  144.5044  163.0776 C.ar    1  UNL1        0.3233
     17 O         139.2234  143.1731  162.4035 O.2     1  UNL1       -0.4012
     18 C         138.8556  144.7303  164.5446 C.3     1  UNL1        0.4711
     19 F         138.6394  144.9563  166.0116 F       1  UNL1       -0.1619
     20 F         137.4149  144.3414  164.3922 F       1  UNL1       -0.1619
     21 F         140.2962  145.1193  164.6970 F       1  UNL1       -0.1619
     22 O         140.7690  136.0406  153.5856 O.3     1  UNL1       -0.4675
     23 C         142.0190  135.2116  153.5755 C.3     1  UNL1        0.2329
     24 C         143.3127  134.6702  155.7626 C.ar    1  UNL1        0.0871
     25 C         143.6051  133.7402  156.9025 C.ar    1  UNL1        0.1089
     26 N         142.8961  132.4216  156.9955 N.ar    1  UNL1       -0.2416
     27 C         141.8947  132.0330  155.9486 C.ar    1  UNL1        0.0987
     28 C         141.6024  132.9630  154.8086 C.ar    1  UNL1        0.0207
     29 C         142.3114  134.2816  154.7156 C.ar    1  UNL1        0.0339
     30 N         144.7308  137.3073  155.5766 N.1     1  UNL1       -0.1908
     31 C         144.0218  135.9887  155.6696 C.1     1  UNL1        0.1018
@<TRIPOS>BOND
     1    30    31    3
     2    31    24    1
     3    24    25   ar
     4    25    26   ar
     5    26    27   ar
     6    27    28   ar
     7    28    29   ar
     8    29    23    1
     9    23    22    1
    10    22     1    1
    11     1     2   ar
    12     2     3   ar
    13     3     4   ar
    14     4     7    1
    15     7     8    1
    16     8     9    1
    17     9    10    1
    18    10    13    1
    19    13    14   ar
    20    14    15   ar
    21    15    16   ar
    22    16    18    1
    23    18    19    1
    24    18    20    1
    25    18    21    1
    26    16    17   ar
    27    10    11    1
    28    11    12    1
    29     4     5   ar
    30     5     6   ar
    31    29    24   ar
    32     6     1   ar
    33    12     7    1
    34    17    13   ar
@<TRIPOS>MOLECULE
*****
 31 34 0 0 0
SMALL
GASTEIGER

@<TRIPOS>ATOM
      1 C         141.5755  138.0299  157.9452 C.ar    1  UNL1        0.1773
      2 C         140.1865  138.4448  158.3305 C.ar    1  UNL1        0.1402
      3 N         139.8476  138.6833  159.7720 N.ar    1  UNL1       -0.2089
      4 C         140.8979  138.5071  160.8284 C.ar    1  UNL1        0.2205
      5 N         142.2869  138.0922  160.4432 N.ar    1  UNL1       -0.2089
      6 C         142.6258  137.8536  159.0016 C.ar    1  UNL1        0.1402
      7 N         140.5590  138.7457  162.2701 N.pl3   1  UNL1       -0.2747
      8 C         139.9900  137.6338  163.1007 C.3     1  UNL1        0.1152
      9 C         139.6512  137.8723  164.5423 C.3     1  UNL1        0.1166
     10 N         139.8814  139.2227  165.1533 N.pl3   1  UNL1       -0.2589
     11 C         140.4505  140.3346  164.3226 C.3     1  UNL1        0.1166
     12 C         140.7893  140.0961  162.8810 C.3     1  UNL1        0.1152
     13 C         139.5426  139.4613  166.5950 C.ar    1  UNL1        0.3120
     14 N         138.3356  138.9377  167.3153 N.ar    1  UNL1       -0.0922
     15 N         138.3984  139.4182  168.7349 N.ar    1  UNL1       -0.1018
     16 C         139.6442  140.2388  168.8919 C.ar    1  UNL1        0.3233
     17 O         140.3514  140.2655  167.5693 O.2     1  UNL1       -0.4012
     18 C         140.1024  140.9142  170.1504 C.3     1  UNL1        0.4711
     19 F         140.5606  141.5895  171.4090 F       1  UNL1       -0.1619
     20 F         138.7639  141.5785  170.2812 F       1  UNL1       -0.1619
     21 F         141.4409  140.2498  170.0196 F       1  UNL1       -0.1619
     22 O         141.9143  137.7913  156.5035 O.3     1  UNL1       -0.4675
     23 C         143.0019  136.8248  156.1387 C.3     1  UNL1        0.2329
     24 C         141.7174  134.7065  155.3558 C.ar    1  UNL1        0.0871
     25 C         141.4700  133.2298  155.4464 C.ar    1  UNL1        0.1089
     26 N         142.2595  132.3948  156.4105 N.ar    1  UNL1       -0.2416
     27 C         143.2965  133.0365  157.2840 C.ar    1  UNL1        0.0987
     28 C         143.5439  134.5131  157.1934 C.ar    1  UNL1        0.0207
     29 C         142.7544  135.3481  156.2293 C.ar    1  UNL1        0.0339
     30 N         140.1384  136.3765  153.4277 N.1     1  UNL1       -0.1908
     31 C         140.9279  135.5415  154.3918 C.1     1  UNL1        0.1018
@<TRIPOS>BOND
     1    30    31    3
     2    31    24    1
     3    24    25   ar
     4    25    26   ar
     5    26    27   ar
     6    27    28   ar
     7    28    29   ar
     8    29    23    1
     9    23    22    1
    10    22     1    1
    11     1     2   ar
    12     2     3   ar
    13     3     4   ar
    14     4     7    1
    15     7     8    1
    16     8     9    1
    17     9    10    1
    18    10    13    1
    19    13    14   ar
    20    14    15   ar
    21    15    16   ar
    22    16    18    1
    23    18    19    1
    24    18    20    1
    25    18    21    1
    26    16    17   ar
    27    10    11    1
    28    11    12    1
    29     4     5   ar
    30     5     6   ar
    31    29    24   ar
    32     6     1   ar
    33    12     7    1
    34    17    13   ar
@<TRIPOS>MOLECULE
*****
 31 34 0 0 0
SMALL
GASTEIGER

@<TRIPOS>ATOM
      1 C         142.3681  139.0758  166.8903 C.ar    1  UNL1        0.1773
      2 C         143.1182  138.6030  165.6805 C.ar    1  UNL1        0.1402
      3 N         142.5084  138.7442  164.3173 N.ar    1  UNL1       -0.2089
      4 C         141.1484  139.3581  164.1641 C.ar    1  UNL1        0.2205
      5 N         140.3983  139.8308  165.3739 N.ar    1  UNL1       -0.2089
      6 C         141.0081  139.6897  166.7371 C.ar    1  UNL1        0.1402
      7 N         140.5385  139.4992  162.8009 N.pl3   1  UNL1       -0.2747
      8 C         140.4263  140.8536  162.1660 C.3     1  UNL1        0.1152
      9 C         139.8165  140.9948  160.8030 C.3     1  UNL1        0.1166
     10 N         139.3187  139.7816  160.0747 N.pl3   1  UNL1       -0.2589
     11 C         139.4309  138.4272  160.7096 C.3     1  UNL1        0.1166
     12 C         140.0408  138.2860  162.0727 C.3     1  UNL1        0.1152
     13 C         138.7088  139.9227  158.7115 C.ar    1  UNL1        0.3120
     14 N         139.0815  139.1318  157.4927 N.ar    1  UNL1       -0.0922
     15 N         138.2221  139.5998  156.3558 N.ar    1  UNL1       -0.1018
     16 C         137.3184  140.6801  156.8720 C.ar    1  UNL1        0.3233
     17 O         137.6192  140.8796  158.3280 O.2     1  UNL1       -0.4012
     18 C         136.2938  141.4292  156.0727 C.3     1  UNL1        0.4711
     19 F         135.2692  142.1783  155.2734 F       1  UNL1       -0.1619
     20 F         135.6946  140.1297  155.6230 F       1  UNL1       -0.1619
     21 F         136.8930  142.7287  156.5224 F       1  UNL1       -0.1619
     22 O         142.9780  138.9347  168.2535 O.3     1  UNL1       -0.4675
     23 C         142.1945  139.3291  169.4702 C.3     1  UNL1        0.2329
     24 C         140.7123  141.3688  170.0972 C.ar    1  UNL1        0.0871
     25 C         140.5846  142.8160  170.4704 C.ar    1  UNL1        0.1089
     26 N         141.8114  143.6708  170.5897 N.ar    1  UNL1       -0.2416
     27 C         143.1659  143.0784  170.3359 C.ar    1  UNL1        0.0987
     28 C         143.2935  141.6312  169.9627 C.ar    1  UNL1        0.0207
     29 C         142.0668  140.7764  169.8434 C.ar    1  UNL1        0.0339
     30 N         138.2587  139.6591  169.8586 N.1     1  UNL1       -0.1908
     31 C         139.4855  140.5139  169.9779 C.1     1  UNL1        0.1018
@<TRIPOS>BOND
     1    30    31    3
     2    31    24    1
     3    24    25   ar
     4    25    26   ar
     5    26    27   ar
     6    27    28   ar
     7    28    29   ar
     8    29    23    1
     9    23    22    1
    10    22     1    1
    11     1     2   ar
    12     2     3   ar
    13     3     4   ar
    14     4     7    1
    15     7     8    1
    16     8     9    1
    17     9    10    1
    18    10    13    1
    19    13    14   ar
    20    14    15   ar
    21    15    16   ar
    22    16    18    1
    23    18    19    1
    24    18    20    1
    25    18    21    1
    26    16    17   ar
    27    10    11    1
    28    11    12    1
    29     4     5   ar
    30     5     6   ar
    31    29    24   ar
    32     6     1   ar
    33    12     7    1
    34    17    13   ar
@<TRIPOS>MOLECULE
*****
 31 34 0 0 0
SMALL
GASTEIGER

@<TRIPOS>ATOM
      1 C         142.0779  138.0674  158.5637 C.ar    1  UNL1        0.1773
      2 C         142.9089  137.2276  159.4879 C.ar    1  UNL1        0.1402
      3 N         143.0412  137.6089  160.9326 N.ar    1  UNL1       -0.2089
      4 C         142.3424  138.8299  161.4530 C.ar    1  UNL1        0.2205
      5 N         141.5114  139.6696  160.5288 N.ar    1  UNL1       -0.2089
      6 C         141.3791  139.2883  159.0841 C.ar    1  UNL1        0.1402
      7 N         142.4747  139.2112  162.8978 N.pl3   1  UNL1       -0.2747
      8 C         141.5274  138.6436  163.9130 C.3     1  UNL1        0.1152
      9 C         141.6597  139.0248  165.3576 C.3     1  UNL1        0.1166
     10 N         142.7391  139.9737  165.7871 N.pl3   1  UNL1       -0.2589
     11 C         143.6863  140.5412  164.7719 C.3     1  UNL1        0.1166
     12 C         143.5541  140.1600  163.3272 C.3     1  UNL1        0.1152
     13 C         142.8713  140.3550  167.2318 C.ar    1  UNL1        0.3120
     14 N         142.8498  139.4120  168.3981 N.ar    1  UNL1       -0.0922
     15 N         143.0135  140.2204  169.6510 N.ar    1  UNL1       -0.1018
     16 C         143.1362  141.6631  169.2590 C.ar    1  UNL1        0.3233
     17 O         143.0484  141.7463  167.7639 O.2     1  UNL1       -0.4012
     18 C         143.3154  142.8196  170.1973 C.3     1  UNL1        0.4711
     19 F         143.4945  143.9760  171.1356 F       1  UNL1       -0.1619
     20 F         144.8044  142.6633  170.1056 F       1  UNL1       -0.1619
     21 F         141.8264  142.9759  170.2890 F       1  UNL1       -0.1619
     22 O         141.9456  137.6861  157.1190 O.3     1  UNL1       -0.4675
     23 C         142.9591  136.7787  156.4869 C.3     1  UNL1        0.2329
     24 C         141.6455  134.7955  155.4423 C.ar    1  UNL1        0.0871
     25 C         141.3767  133.3230  155.3451 C.ar    1  UNL1        0.1089
     26 N         142.1527  132.3612  156.1953 N.ar    1  UNL1       -0.2416
     27 C         143.1974  132.8719  157.1427 C.ar    1  UNL1        0.0987
     28 C         143.4662  134.3444  157.2399 C.ar    1  UNL1        0.0207
     29 C         142.6903  135.3062  156.3897 C.ar    1  UNL1        0.0339
     30 N         140.0936  136.7191  153.7419 N.1     1  UNL1       -0.1908
     31 C         140.8695  135.7573  154.5921 C.1     1  UNL1        0.1018
@<TRIPOS>BOND
     1    30    31    3
     2    31    24    1
     3    24    25   ar
     4    25    26   ar
     5    26    27   ar
     6    27    28   ar
     7    28    29   ar
     8    29    23    1
     9    23    22    1
    10    22     1    1
    11     1     2   ar
    12     2     3   ar
    13     3     4   ar
    14     4     7    1
    15     7     8    1
    16     8     9    1
    17     9    10    1
    18    10    13    1
    19    13    14   ar
    20    14    15   ar
    21    15    16   ar
    22    16    18    1
    23    18    19    1
    24    18    20    1
    25    18    21    1
    26    16    17   ar
    27    10    11    1
    28    11    12    1
    29     4     5   ar
    30     5     6   ar
    31    29    24   ar
    32     6     1   ar
    33    12     7    1
    34    17    13   ar
@<TRIPOS>MOLECULE
*****
 31 34 0 0 0
SMALL
GASTEIGER

@<TRIPOS>ATOM
      1 C         139.4839  141.3202  165.4897 C.ar    1  UNL1        0.1773
      2 C         140.6071  142.2796  165.2288 C.ar    1  UNL1        0.1402
      3 N         140.7376  142.9342  163.8855 N.ar    1  UNL1       -0.2089
      4 C         139.7449  142.6294  162.8031 C.ar    1  UNL1        0.2205
      5 N         138.6217  141.6700  163.0640 N.ar    1  UNL1       -0.2089
      6 C         138.4912  141.0154  164.4073 C.ar    1  UNL1        0.1402
      7 N         139.8753  143.2840  161.4598 N.pl3   1  UNL1       -0.2747
      8 C         140.6854  144.5377  161.3119 C.3     1  UNL1        0.1152
      9 C         140.8158  145.1923  159.9686 C.3     1  UNL1        0.1166
     10 N         140.1362  144.5932  158.7732 N.pl3   1  UNL1       -0.2589
     11 C         139.3261  143.3394  158.9211 C.3     1  UNL1        0.1166
     12 C         139.1957  142.6848  160.2644 C.3     1  UNL1        0.1152
     13 C         140.2667  145.2478  157.4298 C.ar    1  UNL1        0.3120
     14 N         140.9932  144.6878  156.2430 N.ar    1  UNL1       -0.0922
     15 N         140.8690  145.6712  155.1172 N.ar    1  UNL1       -0.1018
     16 C         140.0656  146.8390  155.6082 C.ar    1  UNL1        0.3233
     17 O         139.6934  146.5772  157.0375 O.2     1  UNL1       -0.4012
     18 C         139.6990  148.0549  154.8101 C.3     1  UNL1        0.4711
     19 F         139.3323  149.2708  154.0119 F       1  UNL1       -0.1619
     20 F         140.7812  147.7331  153.8226 F       1  UNL1       -0.1619
     21 F         138.6167  148.3767  155.7975 F       1  UNL1       -0.1619
     22 O         139.3535  140.6656  166.8331 O.3     1  UNL1       -0.4675
     23 C         140.5790  140.2047  167.5649 C.3     1  UNL1        0.2329
     24 C         140.4238  141.1385  169.9844 C.ar    1  UNL1        0.0871
     25 C         140.9928  141.9722  171.0940 C.ar    1  UNL1        0.1089
     26 N         142.2857  142.7058  170.8938 N.ar    1  UNL1       -0.2416
     27 C         143.0098  142.6057  169.5839 C.ar    1  UNL1        0.0987
     28 C         142.4409  141.7720  168.4744 C.ar    1  UNL1        0.0207
     29 C         141.1479  141.0384  168.6746 C.ar    1  UNL1        0.0339
     30 N         137.8379  139.6714  170.3849 N.1     1  UNL1       -0.1908
     31 C         139.1309  140.4050  170.1847 C.1     1  UNL1        0.1018
@<TRIPOS>BOND
     1    30    31    3
     2    31    24    1
     3    24    25   ar
     4    25    26   ar
     5    26    27   ar
     6    27    28   ar
     7    28    29   ar
     8    29    23    1
     9    23    22    1
    10    22     1    1
    11     1     2   ar
    12     2     3   ar
    13     3     4   ar
    14     4     7    1
    15     7     8    1
    16     8     9    1
    17     9    10    1
    18    10    13    1
    19    13    14   ar
    20    14    15   ar
    21    15    16   ar
    22    16    18    1
    23    18    19    1
    24    18    20    1
    25    18    21    1
    26    16    17   ar
    27    10    11    1
    28    11    12    1
    29     4     5   ar
    30     5     6   ar
    31    29    24   ar
    32     6     1   ar
    33    12     7    1
    34    17    13   ar
@<TRIPOS>MOLECULE
*****
 31 34 0 0 0
SMALL
GASTEIGER

@<TRIPOS>ATOM
      1 C         139.9448  143.8949  159.8165 C.ar    1  UNL1        0.1773
      2 C         141.3325  143.6465  159.3039 C.ar    1  UNL1        0.1402
      3 N         141.6944  142.3048  158.7393 N.ar    1  UNL1       -0.2089
      4 C         140.6688  141.2115  158.6873 C.ar    1  UNL1        0.2205
      5 N         139.2812  141.4599  159.1999 N.ar    1  UNL1       -0.2089
      6 C         138.9192  142.8016  159.7645 C.ar    1  UNL1        0.1402
      7 N         141.0307  139.8698  158.1226 N.pl3   1  UNL1       -0.2747
      8 C         139.9520  138.9299  157.6722 C.3     1  UNL1        0.1152
      9 C         140.3139  137.5882  157.1076 C.3     1  UNL1        0.1166
     10 N         141.7545  137.1864  156.9933 N.pl3   1  UNL1       -0.2589
     11 C         142.8332  138.1263  157.4437 C.3     1  UNL1        0.1166
     12 C         142.4714  139.4680  158.0083 C.3     1  UNL1        0.1152
     13 C         142.1164  135.8446  156.4287 C.ar    1  UNL1        0.3120
     14 N         141.3424  135.0868  155.3912 N.ar    1  UNL1       -0.0922
     15 N         142.0635  133.7990  155.1237 N.ar    1  UNL1       -0.1018
     16 C         143.2833  133.7610  155.9960 C.ar    1  UNL1        0.3233
     17 O         143.3160  135.0253  156.8024 O.2     1  UNL1       -0.4012
     18 C         144.2931  132.6532  156.0518 C.3     1  UNL1        0.4711
     19 F         145.3029  131.5454  156.1077 F       1  UNL1       -0.1619
     20 F         143.7922  132.1303  154.7382 F       1  UNL1       -0.1619
     21 F         144.7940  133.1760  157.3655 F       1  UNL1       -0.1619
     22 O         139.5829  145.2366  160.3812 O.3     1  UNL1       -0.4675
     23 C         140.2017  145.7013  161.6662 C.3     1  UNL1        0.2329
     24 C         141.1184  144.4109  163.7264 C.ar    1  UNL1        0.0871
     25 C         140.8755  143.6479  164.9948 C.ar    1  UNL1        0.1089
     26 N         139.4729  143.4121  165.4712 N.ar    1  UNL1       -0.2416
     27 C         138.3132  143.9393  164.6794 C.ar    1  UNL1        0.0987
     28 C         138.5561  144.7024  163.4110 C.ar    1  UNL1        0.0207
     29 C         139.9588  144.9382  162.9346 C.ar    1  UNL1        0.0339
     30 N         143.9237  144.8825  162.7735 N.1     1  UNL1       -0.1908
     31 C         142.5211  144.6467  163.2500 C.1     1  UNL1        0.1018
@<TRIPOS>BOND
     1    30    31    3
     2    31    24    1
     3    24    25   ar
     4    25    26   ar
     5    26    27   ar
     6    27    28   ar
     7    28    29   ar
     8    29    23    1
     9    23    22    1
    10    22     1    1
    11     1     2   ar
    12     2     3   ar
    13     3     4   ar
    14     4     7    1
    15     7     8    1
    16     8     9    1
    17     9    10    1
    18    10    13    1
    19    13    14   ar
    20    14    15   ar
    21    15    16   ar
    22    16    18    1
    23    18    19    1
    24    18    20    1
    25    18    21    1
    26    16    17   ar
    27    10    11    1
    28    11    12    1
    29     4     5   ar
    30     5     6   ar
    31    29    24   ar
    32     6     1   ar
    33    12     7    1
    34    17    13   ar
@<TRIPOS>MOLECULE
*****
 31 34 0 0 0
SMALL
GASTEIGER

@<TRIPOS>ATOM
      1 C         140.2243  140.4332  165.5726 C.ar    1  UNL1        0.1773
      2 C         139.8196  141.4240  164.5217 C.ar    1  UNL1        0.1402
      3 N         140.5773  141.4981  163.2293 N.ar    1  UNL1       -0.2089
      4 C         141.7397  140.5814  162.9878 C.ar    1  UNL1        0.2205
      5 N         142.1445  139.5906  164.0388 N.ar    1  UNL1       -0.2089
      6 C         141.3868  139.5165  165.3312 C.ar    1  UNL1        0.1402
      7 N         142.4975  140.6554  161.6954 N.pl3   1  UNL1       -0.2747
      8 C         143.2289  141.9118  161.3257 C.3     1  UNL1        0.1152
      9 C         143.9866  141.9859  160.0333 C.3     1  UNL1        0.1166
     10 N         144.0130  140.8036  159.1106 N.pl3   1  UNL1       -0.2589
     11 C         143.2816  139.5472  159.4803 C.3     1  UNL1        0.1166
     12 C         142.5239  139.4731  160.7726 C.3     1  UNL1        0.1152
     13 C         144.7708  140.8776  157.8181 C.ar    1  UNL1        0.3120
     14 N         144.7916  139.8279  156.7469 N.ar    1  UNL1       -0.0922
     15 N         145.6744  140.3159  155.6368 N.ar    1  UNL1       -0.1018
     16 C         146.1992  141.6674  156.0219 C.ar    1  UNL1        0.3233
     17 O         145.6407  142.0145  157.3701 O.2     1  UNL1       -0.4012
     18 C         147.1207  142.5216  155.2027 C.3     1  UNL1        0.4711
     19 F         148.0422  143.3758  154.3835 F       1  UNL1       -0.1619
     20 F         148.2777  141.6525  155.5978 F       1  UNL1       -0.1619
     21 F         145.9638  143.3907  154.8076 F       1  UNL1       -0.1619
     22 O         139.4666  140.3592  166.8651 O.3     1  UNL1       -0.4675
     23 C         140.1920  140.0616  168.1438 C.3     1  UNL1        0.2329
     24 C         141.8920  140.9349  169.9037 C.ar    1  UNL1        0.0871
     25 C         142.4430  142.0575  170.7321 C.ar    1  UNL1        0.1089
     26 N         141.8450  143.4292  170.6290 N.ar    1  UNL1       -0.2416
     27 C         140.6960  143.6785  169.6976 C.ar    1  UNL1        0.0987
     28 C         140.1450  142.5559  168.8692 C.ar    1  UNL1        0.0207
     29 C         140.7430  141.1842  168.9723 C.ar    1  UNL1        0.0339
     30 N         143.0881  138.1914  170.1098 N.1     1  UNL1       -0.1908
     31 C         142.4901  139.5632  170.0067 C.1     1  UNL1        0.1018
@<TRIPOS>BOND
     1    30    31    3
     2    31    24    1
     3    24    25   ar
     4    25    26   ar
     5    26    27   ar
     6    27    28   ar
     7    28    29   ar
     8    29    23    1
     9    23    22    1
    10    22     1    1
    11     1     2   ar
    12     2     3   ar
    13     3     4   ar
    14     4     7    1
    15     7     8    1
    16     8     9    1
    17     9    10    1
    18    10    13    1
    19    13    14   ar
    20    14    15   ar
    21    15    16   ar
    22    16    18    1
    23    18    19    1
    24    18    20    1
    25    18    21    1
    26    16    17   ar
    27    10    11    1
    28    11    12    1
    29     4     5   ar
    30     5     6   ar
    31    29    24   ar
    32     6     1   ar
    33    12     7    1
    34    17    13   ar
@<TRIPOS>MOLECULE
*****
 31 34 0 0 0
SMALL
GASTEIGER

@<TRIPOS>ATOM
      1 C         141.8184  136.0717  155.8384 C.ar    1  UNL1        0.1773
      2 C         142.8508  136.6918  156.7325 C.ar    1  UNL1        0.1402
      3 N         142.4797  137.8409  157.6223 N.ar    1  UNL1       -0.2089
      4 C         141.0761  138.3699  157.6179 C.ar    1  UNL1        0.2205
      5 N         140.0436  137.7498  156.7237 N.ar    1  UNL1       -0.2089
      6 C         140.4148  136.6007  155.8339 C.ar    1  UNL1        0.1402
      7 N         140.7049  139.5191  158.5076 N.pl3   1  UNL1       -0.2747
      8 C         140.8183  139.3816  159.9970 C.3     1  UNL1        0.1152
      9 C         140.4471  140.5306  160.8868 C.3     1  UNL1        0.1166
     10 N         139.9625  141.8173  160.2872 N.pl3   1  UNL1       -0.2589
     11 C         139.8490  141.9549  158.7978 C.3     1  UNL1        0.1166
     12 C         140.2202  140.8058  157.9080 C.3     1  UNL1        0.1152
     13 C         139.5913  142.9665  161.1770 C.ar    1  UNL1        0.3120
     14 N         139.2848  144.3650  160.7294 N.ar    1  UNL1       -0.0922
     15 N         138.9655  145.1817  161.9463 N.ar    1  UNL1       -0.1018
     16 C         139.0747  144.2880  163.1461 C.ar    1  UNL1        0.3233
     17 O         139.4614  142.9189  162.6706 O.2     1  UNL1       -0.4012
     18 C         138.8385  144.6923  164.5711 C.3     1  UNL1        0.4711
     19 F         138.6024  145.0967  165.9961 F       1  UNL1       -0.1619
     20 F         140.2872  145.0563  164.7079 F       1  UNL1       -0.1619
     21 F         137.3898  144.3284  164.4344 F       1  UNL1       -0.1619
     22 O         142.1896  134.9225  154.9486 O.3     1  UNL1       -0.4675
     23 C         141.8169  133.5224  155.3369 C.3     1  UNL1        0.2329
     24 C         143.8872  132.1563  156.1099 C.ar    1  UNL1        0.0871
     25 C         144.8581  131.0339  155.8920 C.ar    1  UNL1        0.1089
     26 N         144.7296  130.1551  154.6831 N.ar    1  UNL1       -0.2416
     27 C         143.6302  130.3988  153.6922 C.ar    1  UNL1        0.0987
     28 C         142.6594  131.5212  153.9102 C.ar    1  UNL1        0.0207
     29 C         142.7879  132.4000  155.1190 C.ar    1  UNL1        0.0339
     30 N         144.1443  133.9137  158.5276 N.1     1  UNL1       -0.1908
     31 C         144.0158  133.0350  157.3188 C.1     1  UNL1        0.1018
@<TRIPOS>BOND
     1    30    31    3
     2    31    24    1
     3    24    25   ar
     4    25    26   ar
     5    26    27   ar
     6    27    28   ar
     7    28    29   ar
     8    29    23    1
     9    23    22    1
    10    22     1    1
    11     1     2   ar
    12     2     3   ar
    13     3     4   ar
    14     4     7    1
    15     7     8    1
    16     8     9    1
    17     9    10    1
    18    10    13    1
    19    13    14   ar
    20    14    15   ar
    21    15    16   ar
    22    16    18    1
    23    18    19    1
    24    18    20    1
    25    18    21    1
    26    16    17   ar
    27    10    11    1
    28    11    12    1
    29     4     5   ar
    30     5     6   ar
    31    29    24   ar
    32     6     1   ar
    33    12     7    1
    34    17    13   ar
@<TRIPOS>MOLECULE
*****
 31 34 0 0 0
SMALL
GASTEIGER

@<TRIPOS>ATOM
      1 C         142.7141  139.0342  166.6567 C.ar    1  UNL1        0.1773
      2 C         143.6529  138.9146  165.4929 C.ar    1  UNL1        0.1402
      3 N         143.1162  138.9248  164.0923 N.ar    1  UNL1       -0.2089
      4 C         141.6408  139.0547  163.8554 C.ar    1  UNL1        0.2205
      5 N         140.7020  139.1743  165.0192 N.ar    1  UNL1       -0.2089
      6 C         141.2387  139.1640  166.4198 C.ar    1  UNL1        0.1402
      7 N         141.1041  139.0650  162.4547 N.pl3   1  UNL1       -0.2747
      8 C         139.8847  139.8738  162.1248 C.3     1  UNL1        0.1152
      9 C         139.3479  139.8841  160.7241 C.3     1  UNL1        0.1166
     10 N         140.0305  139.0856  159.6535 N.pl3   1  UNL1       -0.2589
     11 C         141.2499  138.2767  159.9835 C.3     1  UNL1        0.1166
     12 C         141.7867  138.2664  161.3841 C.3     1  UNL1        0.1152
     13 C         139.4938  139.0959  158.2528 C.ar    1  UNL1        0.3120
     14 N         138.3560  139.9344  157.7508 N.ar    1  UNL1       -0.0922
     15 N         138.1596  139.6262  156.2960 N.ar    1  UNL1       -0.1018
     16 C         139.1762  138.5970  155.8989 C.ar    1  UNL1        0.3233
     17 O         140.0007  138.2693  157.1083 O.2     1  UNL1       -0.4012
     18 C         139.3395  138.0004  154.5324 C.3     1  UNL1        0.4711
     19 F         139.5027  137.4039  153.1659 F       1  UNL1       -0.1619
     20 F         139.2678  136.6242  155.1246 F       1  UNL1       -0.1619
     21 F         139.4111  139.3767  153.9401 F       1  UNL1       -0.1619
     22 O         143.2509  139.0239  168.0574 O.3     1  UNL1       -0.4675
     23 C         142.3469  139.3487  169.2094 C.3     1  UNL1        0.2329
     24 C         140.7231  141.3218  169.6790 C.ar    1  UNL1        0.0871
     25 C         140.4953  142.7509  170.0737 C.ar    1  UNL1        0.1089
     26 N         141.6633  143.6359  170.3937 N.ar    1  UNL1       -0.2416
     27 C         143.0592  143.0920  170.3189 C.ar    1  UNL1        0.0987
     28 C         143.2870  141.6629  169.9241 C.ar    1  UNL1        0.0207
     29 C         142.1190  140.7779  169.6042 C.ar    1  UNL1        0.0339
     30 N         138.3871  139.5517  169.0391 N.1     1  UNL1       -0.1908
     31 C         139.5551  140.4368  169.3590 C.1     1  UNL1        0.1018
@<TRIPOS>BOND
     1    30    31    3
     2    31    24    1
     3    24    25   ar
     4    25    26   ar
     5    26    27   ar
     6    27    28   ar
     7    28    29   ar
     8    29    23    1
     9    23    22    1
    10    22     1    1
    11     1     2   ar
    12     2     3   ar
    13     3     4   ar
    14     4     7    1
    15     7     8    1
    16     8     9    1
    17     9    10    1
    18    10    13    1
    19    13    14   ar
    20    14    15   ar
    21    15    16   ar
    22    16    18    1
    23    18    19    1
    24    18    20    1
    25    18    21    1
    26    16    17   ar
    27    10    11    1
    28    11    12    1
    29     4     5   ar
    30     5     6   ar
    31    29    24   ar
    32     6     1   ar
    33    12     7    1
    34    17    13   ar
