@<TRIPOS>MOLECULE
*****
 37 40 0 0 0
SMALL
GASTEIGER

@<TRIPOS>ATOM
      1 C         143.2861  138.8775  156.2070 C.3     1  UNL1        0.1004
      2 C         143.2242  137.5190  155.5741 C.3     1  UNL1        0.1085
      3 N         142.8111  136.5349  156.6281 N.pl3   1  UNL1       -0.3057
      4 C         142.6177  137.2852  157.9125 C.3     1  UNL1        0.0966
      5 C         142.9112  138.7330  157.6523 C.3     1  UNL1        0.0598
      6 C         142.6243  135.0595  156.4322 C.ar    1  UNL1        0.0479
      7 C         143.4443  134.0875  157.2277 C.ar    1  UNL1        0.0145
      8 C         143.2574  132.6122  157.0317 C.ar    1  UNL1        0.0013
      9 C         142.2506  132.1089  156.0402 C.ar    1  UNL1        0.0001
     10 C         141.4307  133.0809  155.2447 C.ar    1  UNL1        0.0013
     11 C         141.6175  134.5562  155.4407 C.ar    1  UNL1        0.0145
     12 C         142.8420  139.8417  158.6603 C.ar    1  UNL1       -0.0194
     13 C         141.7676  140.8833  158.5569 C.ar    1  UNL1       -0.0042
     14 C         141.6984  141.9920  159.5649 C.ar    1  UNL1       -0.0003
     15 C         142.7036  142.0590  160.6762 C.ar    1  UNL1        0.0000
     16 C         143.7781  141.0174  160.7796 C.ar    1  UNL1       -0.0003
     17 C         143.8472  139.9088  159.7716 C.ar    1  UNL1       -0.0042
     18 C         142.6344  143.1677  161.6842 C.ar    1  UNL1        0.0013
     19 C         143.8934  143.6972  162.3043 C.ar    1  UNL1        0.0001
     20 C         143.8242  144.8059  163.3123 C.ar    1  UNL1        0.0013
     21 C         142.4959  145.3851  163.7002 C.ar    1  UNL1        0.0158
     22 C         141.2369  144.8556  163.0801 C.ar    1  UNL1        0.0644
     23 C         141.3061  143.7469  162.0721 C.ar    1  UNL1        0.0158
     24 N         139.9088  145.4348  163.4680 N.pl3   1  UNL1       -0.2187
     25 H         139.7634  146.4074  163.4214 H       1  UNL1        0.1734
     26 S         138.8022  144.5322  163.9268 S.O2    1  UNL1        0.0558
     27 C         137.6955  143.6296  164.3857 C.3     1  UNL1        0.1996
     28 O         139.5706  144.2260  165.1781 O.2     1  UNL1       -0.1544
     29 O         138.0336  144.8384  162.6756 O.2     1  UNL1       -0.1544
     30 N         143.6576  140.1560  155.5161 N.3     1  UNL1       -0.1827
     31 H         143.9158  139.9100  154.5605 H       1  UNL1        0.1484
     32 S         144.7671  141.0070  156.0590 S.O2    1  UNL1        0.0390
     33 O         143.8408  142.1859  156.1043 O.2     1  UNL1       -0.1576
     34 O         145.6934  139.8281  156.0137 O.2     1  UNL1       -0.1576
     35 C         145.7098  142.5577  157.9182 C.3     1  UNL1        0.0270
     36 C         145.8767  141.8580  156.6020 C.3     1  UNL1        0.1457
     37 C         147.1530  142.0091  155.8286 C.3     1  UNL1        0.0270
@<TRIPOS>BOND
     1    35    36    1
     2    36    37    1
     3    36    32    1
     4    32    33    2
     5    32    34    2
     6    32    30    1
     7     1    30    1
     8     1     2    1
     9     2     3    1
    10     3     6    1
    11     6     7   ar
    12     7     8   ar
    13     8     9   ar
    14     9    10   ar
    15    10    11   ar
    16     3     4    1
    17     4     5    1
    18     5    12    1
    19    12    13   ar
    20    13    14   ar
    21    14    15   ar
    22    15    18    1
    23    18    19   ar
    24    19    20   ar
    25    20    21   ar
    26    21    22   ar
    27    22    24    1
    28    24    26    1
    29    26    27    1
    30    26    28    2
    31    26    29    2
    32    22    23   ar
    33    15    16   ar
    34    16    17   ar
    35     5     1    1
    36    17    12   ar
    37    11     6   ar
    38    23    18   ar
    39    30    31    1
    40    24    25    1
@<TRIPOS>MOLECULE
*****
 37 40 0 0 0
SMALL
GASTEIGER

@<TRIPOS>ATOM
      1 C         142.4987  143.6384  159.8822 C.3     1  UNL1        0.1004
      2 C         142.4607  144.4028  158.5922 C.3     1  UNL1        0.1085
      3 N         141.0254  144.6957  158.2690 N.pl3   1  UNL1       -0.3057
      4 C         140.1765  144.1123  159.3594 C.3     1  UNL1        0.0966
      5 C         141.0870  143.4589  160.3564 C.3     1  UNL1        0.0598
      6 C         140.5268  145.4411  157.0666 C.ar    1  UNL1        0.0479
      7 C         140.9099  144.9857  155.6898 C.ar    1  UNL1        0.0145
      8 C         140.4113  145.7311  154.4874 C.ar    1  UNL1        0.0013
      9 C         139.5294  146.9319  154.6619 C.ar    1  UNL1        0.0001
     10 C         139.1463  147.3873  156.0388 C.ar    1  UNL1        0.0013
     11 C         139.6450  146.6419  157.2411 C.ar    1  UNL1        0.0145
     12 C         140.6606  142.7504  161.6079 C.ar    1  UNL1       -0.0194
     13 C         140.5865  141.2524  161.6335 C.ar    1  UNL1       -0.0042
     14 C         140.1602  140.5439  162.8850 C.ar    1  UNL1       -0.0003
     15 C         139.8080  141.3333  164.1108 C.ar    1  UNL1        0.0000
     16 C         139.8821  142.8313  164.0852 C.ar    1  UNL1       -0.0003
     17 C         140.3084  143.5397  162.8338 C.ar    1  UNL1       -0.0042
     18 C         139.3816  140.6247  165.3623 C.ar    1  UNL1        0.0013
     19 C         138.2679  139.6211  165.3136 C.ar    1  UNL1        0.0001
     20 C         137.8416  138.9126  166.5651 C.ar    1  UNL1        0.0013
     21 C         138.5290  139.2077  167.8653 C.ar    1  UNL1        0.0158
     22 C         139.6427  140.2113  167.9140 C.ar    1  UNL1        0.0644
     23 C         140.0690  140.9198  166.6625 C.ar    1  UNL1        0.0158
     24 N         140.3301  140.5063  169.2142 N.pl3   1  UNL1       -0.2187
     25 H         140.9480  139.8471  169.6050 H       1  UNL1        0.1734
     26 S         140.0759  141.8058  169.9189 S.O2    1  UNL1        0.0558
     27 C         139.8217  143.1053  170.6237 C.3     1  UNL1        0.1996
     28 O         138.7774  141.2678  170.4428 O.2     1  UNL1       -0.1544
     29 O         141.3744  142.3439  169.3950 O.2     1  UNL1       -0.1544
     30 N         143.7319  143.1409  160.5762 N.3     1  UNL1       -0.1827
     31 H         143.8395  142.1600  160.3182 H       1  UNL1        0.1484
     32 S         143.8300  143.2087  162.0715 S.O2    1  UNL1        0.0390
     33 O         144.0171  141.7214  162.1266 O.2     1  UNL1       -0.1576
     34 O         143.6430  144.6959  162.0164 O.2     1  UNL1       -0.1576
     35 C         144.1233  142.0205  164.3633 C.3     1  UNL1        0.0270
     36 C         143.9281  143.2764  163.5668 C.3     1  UNL1        0.1457
     37 C         143.8311  144.6003  164.2654 C.3     1  UNL1        0.0270
@<TRIPOS>BOND
     1    35    36    1
     2    36    37    1
     3    36    32    1
     4    32    33    2
     5    32    34    2
     6    32    30    1
     7     1    30    1
     8     1     2    1
     9     2     3    1
    10     3     6    1
    11     6     7   ar
    12     7     8   ar
    13     8     9   ar
    14     9    10   ar
    15    10    11   ar
    16     3     4    1
    17     4     5    1
    18     5    12    1
    19    12    13   ar
    20    13    14   ar
    21    14    15   ar
    22    15    18    1
    23    18    19   ar
    24    19    20   ar
    25    20    21   ar
    26    21    22   ar
    27    22    24    1
    28    24    26    1
    29    26    27    1
    30    26    28    2
    31    26    29    2
    32    22    23   ar
    33    15    16   ar
    34    16    17   ar
    35     5     1    1
    36    17    12   ar
    37    11     6   ar
    38    23    18   ar
    39    30    31    1
    40    24    25    1
@<TRIPOS>MOLECULE
*****
 37 40 0 0 0
SMALL
GASTEIGER

@<TRIPOS>ATOM
      1 C         141.2860  139.3041  164.9085 C.3     1  UNL1        0.1004
      2 C         141.1073  139.7051  166.3428 C.3     1  UNL1        0.1085
      3 N         141.7856  141.0280  166.5423 N.pl3   1  UNL1       -0.3057
      4 C         142.3836  141.4447  165.2313 C.3     1  UNL1        0.0966
      5 C         142.0748  140.3793  164.2215 C.3     1  UNL1        0.0598
      6 C         141.8540  141.7989  167.8273 C.ar    1  UNL1        0.0479
      7 C         143.1311  141.8353  168.6131 C.ar    1  UNL1        0.0145
      8 C         143.1994  142.6061  169.8980 C.ar    1  UNL1        0.0013
      9 C         141.9905  143.3407  170.3971 C.ar    1  UNL1        0.0001
     10 C         140.7134  143.3043  169.6114 C.ar    1  UNL1        0.0013
     11 C         140.6451  142.5334  168.3265 C.ar    1  UNL1        0.0145
     12 C         142.4832  140.3875  162.7782 C.ar    1  UNL1       -0.0194
     13 C         141.7849  141.2920  161.8064 C.ar    1  UNL1       -0.0042
     14 C         142.1933  141.3003  160.3631 C.ar    1  UNL1       -0.0003
     15 C         143.2998  140.4041  159.8916 C.ar    1  UNL1        0.0000
     16 C         143.9981  139.4996  160.8634 C.ar    1  UNL1       -0.0003
     17 C         143.5897  139.4914  162.3067 C.ar    1  UNL1       -0.0042
     18 C         143.7081  140.4124  158.4483 C.ar    1  UNL1        0.0013
     19 C         144.5678  141.5215  157.9184 C.ar    1  UNL1        0.0001
     20 C         144.9761  141.5298  156.4750 C.ar    1  UNL1        0.0013
     21 C         144.5247  140.4288  155.5616 C.ar    1  UNL1        0.0158
     22 C         143.6651  139.3197  156.0914 C.ar    1  UNL1        0.0644
     23 C         143.2567  139.3114  157.5348 C.ar    1  UNL1        0.0158
     24 N         143.2138  138.2189  155.1780 N.pl3   1  UNL1       -0.2187
     25 H         142.7712  138.4366  154.3260 H       1  UNL1        0.1734
     26 S         143.4367  136.7864  155.5626 S.O2    1  UNL1        0.0558
     27 C         143.6597  135.3538  155.9473 C.3     1  UNL1        0.1996
     28 O         141.9535  136.5758  155.6386 O.2     1  UNL1       -0.1544
     29 O         144.9200  136.9969  155.4867 O.2     1  UNL1       -0.1544
     30 N         140.7671  138.0485  164.2728 N.3     1  UNL1       -0.1827
     31 H         141.5755  137.4524  164.0956 H       1  UNL1        0.1484
     32 S         139.9936  138.1218  162.9897 S.O2    1  UNL1        0.0390
     33 O         141.0003  137.2255  162.3316 O.2     1  UNL1       -0.1576
     34 O         138.9869  139.0181  163.6478 O.2     1  UNL1       -0.1576
     35 C         139.9460  138.2965  160.3979 C.3     1  UNL1        0.0270
     36 C         139.2201  138.1952  161.7066 C.3     1  UNL1        0.1457
     37 C         137.7205  138.1672  161.7323 C.3     1  UNL1        0.0270
@<TRIPOS>BOND
     1    35    36    1
     2    36    37    1
     3    36    32    1
     4    32    33    2
     5    32    34    2
     6    32    30    1
     7     1    30    1
     8     1     2    1
     9     2     3    1
    10     3     6    1
    11     6     7   ar
    12     7     8   ar
    13     8     9   ar
    14     9    10   ar
    15    10    11   ar
    16     3     4    1
    17     4     5    1
    18     5    12    1
    19    12    13   ar
    20    13    14   ar
    21    14    15   ar
    22    15    18    1
    23    18    19   ar
    24    19    20   ar
    25    20    21   ar
    26    21    22   ar
    27    22    24    1
    28    24    26    1
    29    26    27    1
    30    26    28    2
    31    26    29    2
    32    22    23   ar
    33    15    16   ar
    34    16    17   ar
    35     5     1    1
    36    17    12   ar
    37    11     6   ar
    38    23    18   ar
    39    30    31    1
    40    24    25    1
@<TRIPOS>MOLECULE
*****
 37 40 0 0 0
SMALL
GASTEIGER

@<TRIPOS>ATOM
      1 C         138.9593  142.4684  164.4247 C.3     1  UNL1        0.1004
      2 C         139.2415  142.1469  165.8624 C.3     1  UNL1        0.1085
      3 N         140.5808  142.7248  166.2124 N.pl3   1  UNL1       -0.3057
      4 C         141.1263  143.4034  164.9910 C.3     1  UNL1        0.0966
      5 C         140.1243  143.2450  163.8862 C.3     1  UNL1        0.0598
      6 C         141.2559  142.6390  167.5492 C.ar    1  UNL1        0.0479
      7 C         142.6623  142.1270  167.6476 C.ar    1  UNL1        0.0145
      8 C         143.3374  142.0412  168.9843 C.ar    1  UNL1        0.0013
      9 C         142.6061  142.4675  170.2226 C.ar    1  UNL1        0.0001
     10 C         141.1996  142.9796  170.1242 C.ar    1  UNL1        0.0013
     11 C         140.5246  143.0653  168.7875 C.ar    1  UNL1        0.0145
     12 C         140.2628  143.7709  162.4882 C.ar    1  UNL1       -0.0194
     13 C         140.8864  142.9172  161.4241 C.ar    1  UNL1       -0.0042
     14 C         141.0249  143.4430  160.0261 C.ar    1  UNL1       -0.0003
     15 C         140.5397  144.8225  159.6923 C.ar    1  UNL1        0.0000
     16 C         139.9161  145.6763  160.7564 C.ar    1  UNL1       -0.0003
     17 C         139.7776  145.1504  162.1543 C.ar    1  UNL1       -0.0042
     18 C         140.6782  145.3483  158.2943 C.ar    1  UNL1        0.0013
     19 C         141.8895  145.0031  157.4797 C.ar    1  UNL1        0.0001
     20 C         142.0280  145.5289  156.0817 C.ar    1  UNL1        0.0013
     21 C         140.9551  146.4000  155.4983 C.ar    1  UNL1        0.0158
     22 C         139.7439  146.7453  156.3130 C.ar    1  UNL1        0.0644
     23 C         139.6054  146.2195  157.7109 C.ar    1  UNL1        0.0158
     24 N         138.6711  147.6164  155.7296 N.pl3   1  UNL1       -0.2187
     25 H         137.8507  147.2107  155.3667 H       1  UNL1        0.1734
     26 S         138.8482  149.1055  155.6990 S.O2    1  UNL1        0.0558
     27 C         139.0254  150.5947  155.6685 C.3     1  UNL1        0.1996
     28 O         138.3833  149.1901  157.1227 O.2     1  UNL1       -0.1544
     29 O         139.3132  149.0210  154.2754 O.2     1  UNL1       -0.1544
     30 N         137.7285  142.0814  163.6598 N.3     1  UNL1       -0.1827
     31 H         137.0570  141.7283  164.3416 H       1  UNL1        0.1484
     32 S         137.8154  141.0572  162.5673 S.O2    1  UNL1        0.0390
     33 O         138.0761  139.9899  163.5885 O.2     1  UNL1       -0.1576
     34 O         137.5548  142.1245  161.5461 O.2     1  UNL1       -0.1576
     35 C         138.1220  140.4670  160.0558 C.3     1  UNL1        0.0270
     36 C         137.9024  140.0331  161.4748 C.3     1  UNL1        0.1457
     37 C         137.7698  138.5751  161.8013 C.3     1  UNL1        0.0270
@<TRIPOS>BOND
     1    35    36    1
     2    36    37    1
     3    36    32    1
     4    32    33    2
     5    32    34    2
     6    32    30    1
     7     1    30    1
     8     1     2    1
     9     2     3    1
    10     3     6    1
    11     6     7   ar
    12     7     8   ar
    13     8     9   ar
    14     9    10   ar
    15    10    11   ar
    16     3     4    1
    17     4     5    1
    18     5    12    1
    19    12    13   ar
    20    13    14   ar
    21    14    15   ar
    22    15    18    1
    23    18    19   ar
    24    19    20   ar
    25    20    21   ar
    26    21    22   ar
    27    22    24    1
    28    24    26    1
    29    26    27    1
    30    26    28    2
    31    26    29    2
    32    22    23   ar
    33    15    16   ar
    34    16    17   ar
    35     5     1    1
    36    17    12   ar
    37    11     6   ar
    38    23    18   ar
    39    30    31    1
    40    24    25    1
@<TRIPOS>MOLECULE
*****
 37 40 0 0 0
SMALL
GASTEIGER

@<TRIPOS>ATOM
      1 C         142.4869  142.8930  159.1030 C.3     1  UNL1        0.1004
      2 C         143.0591  143.0430  157.7246 C.3     1  UNL1        0.1085
      3 N         144.4571  142.4995  157.7414 N.pl3   1  UNL1       -0.3057
      4 C         144.7489  142.0135  159.1301 C.3     1  UNL1        0.0966
      5 C         143.5313  142.2567  159.9717 C.3     1  UNL1        0.0598
      6 C         145.3980  142.4505  156.5742 C.ar    1  UNL1        0.0479
      7 C         146.8797  142.4216  156.8060 C.ar    1  UNL1        0.0145
      8 C         147.8206  142.3726  155.6388 C.ar    1  UNL1        0.0013
      9 C         147.2798  142.3526  154.2399 C.ar    1  UNL1        0.0001
     10 C         145.7982  142.3815  154.0080 C.ar    1  UNL1        0.0013
     11 C         144.8573  142.4305  155.1752 C.ar    1  UNL1        0.0145
     12 C         143.3838  141.9223  161.4265 C.ar    1  UNL1       -0.0194
     13 C         144.2317  142.6225  162.4467 C.ar    1  UNL1       -0.0042
     14 C         144.0843  142.2882  163.9015 C.ar    1  UNL1       -0.0003
     15 C         143.0890  141.2535  164.3361 C.ar    1  UNL1        0.0000
     16 C         142.2411  140.5532  163.3159 C.ar    1  UNL1       -0.0003
     17 C         142.3886  140.8876  161.8612 C.ar    1  UNL1       -0.0042
     18 C         142.9416  140.9191  165.7909 C.ar    1  UNL1        0.0013
     19 C         142.9949  139.4893  166.2409 C.ar    1  UNL1        0.0001
     20 C         142.8474  139.1549  167.6957 C.ar    1  UNL1        0.0013
     21 C         142.6467  140.2505  168.7005 C.ar    1  UNL1        0.0158
     22 C         142.5935  141.6803  168.2505 C.ar    1  UNL1        0.0644
     23 C         142.7409  142.0147  166.7957 C.ar    1  UNL1        0.0158
     24 N         142.3928  142.7758  169.2553 N.pl3   1  UNL1       -0.2187
     25 H         143.1142  143.4228  169.4288 H       1  UNL1        0.1734
     26 S         141.0929  142.8856  169.9956 S.O2    1  UNL1        0.0558
     27 C         139.7930  142.9953  170.7360 C.3     1  UNL1        0.1996
     28 O         140.3996  143.2684  168.7218 O.2     1  UNL1       -0.1544
     29 O         141.7862  142.5027  171.2695 O.2     1  UNL1       -0.1544
     30 N         141.1118  143.3066  159.5367 N.3     1  UNL1       -0.1827
     31 H         140.6636  143.7341  158.7263 H       1  UNL1        0.1484
     32 S         140.9418  144.2626  160.6800 S.O2    1  UNL1        0.0390
     33 O         139.9977  143.3031  161.3419 O.2     1  UNL1       -0.1576
     34 O         141.8858  145.2221  160.0181 O.2     1  UNL1       -0.1576
     35 C         141.6465  145.1006  163.0361 C.3     1  UNL1        0.0270
     36 C         140.7718  145.2186  161.8233 C.3     1  UNL1        0.1457
     37 C         139.7269  146.2927  161.7538 C.3     1  UNL1        0.0270
@<TRIPOS>BOND
     1    35    36    1
     2    36    37    1
     3    36    32    1
     4    32    33    2
     5    32    34    2
     6    32    30    1
     7     1    30    1
     8     1     2    1
     9     2     3    1
    10     3     6    1
    11     6     7   ar
    12     7     8   ar
    13     8     9   ar
    14     9    10   ar
    15    10    11   ar
    16     3     4    1
    17     4     5    1
    18     5    12    1
    19    12    13   ar
    20    13    14   ar
    21    14    15   ar
    22    15    18    1
    23    18    19   ar
    24    19    20   ar
    25    20    21   ar
    26    21    22   ar
    27    22    24    1
    28    24    26    1
    29    26    27    1
    30    26    28    2
    31    26    29    2
    32    22    23   ar
    33    15    16   ar
    34    16    17   ar
    35     5     1    1
    36    17    12   ar
    37    11     6   ar
    38    23    18   ar
    39    30    31    1
    40    24    25    1
@<TRIPOS>MOLECULE
*****
 37 40 0 0 0
SMALL
GASTEIGER

@<TRIPOS>ATOM
      1 C         143.5508  142.7569  160.7541 C.3     1  UNL1        0.1004
      2 C         144.2286  142.6968  159.4173 C.3     1  UNL1        0.1085
      3 N         143.9728  141.3412  158.8284 N.pl3   1  UNL1       -0.3057
      4 C         143.1368  140.5635  159.8012 C.3     1  UNL1        0.0966
      5 C         142.8760  141.4384  160.9913 C.3     1  UNL1        0.0598
      6 C         144.4662  140.8496  157.4999 C.ar    1  UNL1        0.0479
      7 C         143.7576  139.7241  156.8063 C.ar    1  UNL1        0.0145
      8 C         144.2511  139.2326  155.4778 C.ar    1  UNL1        0.0013
      9 C         145.4532  139.8666  154.8430 C.ar    1  UNL1        0.0001
     10 C         146.1618  140.9921  155.5366 C.ar    1  UNL1        0.0013
     11 C         145.6683  141.4836  156.8650 C.ar    1  UNL1        0.0145
     12 C         142.0802  141.0611  162.2056 C.ar    1  UNL1       -0.0194
     13 C         142.7830  140.6336  163.4599 C.ar    1  UNL1       -0.0042
     14 C         141.9872  140.2563  164.6741 C.ar    1  UNL1       -0.0003
     15 C         140.4886  140.3065  164.6340 C.ar    1  UNL1        0.0000
     16 C         139.7858  140.7341  163.3796 C.ar    1  UNL1       -0.0003
     17 C         140.5816  141.1113  162.1655 C.ar    1  UNL1       -0.0042
     18 C         139.6928  139.9292  165.8482 C.ar    1  UNL1        0.0013
     19 C         138.5775  138.9327  165.7341 C.ar    1  UNL1        0.0001
     20 C         137.7817  138.5554  166.9483 C.ar    1  UNL1        0.0013
     21 C         138.1012  139.1747  168.2767 C.ar    1  UNL1        0.0158
     22 C         139.2164  140.1713  168.3908 C.ar    1  UNL1        0.0644
     23 C         140.0123  140.5486  167.1766 C.ar    1  UNL1        0.0158
     24 N         139.5359  140.7905  169.7191 N.pl3   1  UNL1       -0.2187
     25 H         138.8233  141.2180  170.2471 H       1  UNL1        0.1734
     26 S         140.9409  140.7585  170.2431 S.O2    1  UNL1        0.0558
     27 C         142.3461  140.7264  170.7670 C.3     1  UNL1        0.1996
     28 O         140.9412  142.2557  170.3342 O.2     1  UNL1       -0.1544
     29 O         140.9408  139.2612  170.1519 O.2     1  UNL1       -0.1544
     30 N         143.5482  143.9296  161.6894 N.3     1  UNL1       -0.1827
     31 H         144.0972  143.6571  162.5048 H       1  UNL1        0.1484
     32 S         142.2494  144.4753  162.2045 S.O2    1  UNL1        0.0390
     33 O         141.8401  144.8230  160.8039 O.2     1  UNL1       -0.1576
     34 O         142.6587  144.1276  163.6049 O.2     1  UNL1       -0.1576
     35 C         140.4323  144.5856  164.0581 C.3     1  UNL1        0.0270
     36 C         140.9506  145.0210  162.7195 C.3     1  UNL1        0.1457
     37 C         140.1701  146.0021  161.8959 C.3     1  UNL1        0.0270
@<TRIPOS>BOND
     1    35    36    1
     2    36    37    1
     3    36    32    1
     4    32    33    2
     5    32    34    2
     6    32    30    1
     7     1    30    1
     8     1     2    1
     9     2     3    1
    10     3     6    1
    11     6     7   ar
    12     7     8   ar
    13     8     9   ar
    14     9    10   ar
    15    10    11   ar
    16     3     4    1
    17     4     5    1
    18     5    12    1
    19    12    13   ar
    20    13    14   ar
    21    14    15   ar
    22    15    18    1
    23    18    19   ar
    24    19    20   ar
    25    20    21   ar
    26    21    22   ar
    27    22    24    1
    28    24    26    1
    29    26    27    1
    30    26    28    2
    31    26    29    2
    32    22    23   ar
    33    15    16   ar
    34    16    17   ar
    35     5     1    1
    36    17    12   ar
    37    11     6   ar
    38    23    18   ar
    39    30    31    1
    40    24    25    1
@<TRIPOS>MOLECULE
*****
 37 40 0 0 0
SMALL
GASTEIGER

@<TRIPOS>ATOM
      1 C         141.0471  139.5424  164.6321 C.3     1  UNL1        0.1004
      2 C         141.4985  139.7703  166.0442 C.3     1  UNL1        0.1085
      3 N         141.2883  141.2194  166.3700 N.pl3   1  UNL1       -0.3057
      4 C         140.7069  141.8870  165.1591 C.3     1  UNL1        0.0966
      5 C         140.5578  140.8507  164.0850 C.3     1  UNL1        0.0598
      6 C         141.6040  141.8840  167.6772 C.ar    1  UNL1        0.0479
      7 C         140.5705  142.7335  168.3555 C.ar    1  UNL1        0.0145
      8 C         140.8863  143.3981  169.6626 C.ar    1  UNL1        0.0013
      9 C         142.2355  143.2132  170.2914 C.ar    1  UNL1        0.0001
     10 C         143.2690  142.3637  169.6130 C.ar    1  UNL1        0.0013
     11 C         142.9533  141.6991  168.3059 C.ar    1  UNL1        0.0145
     12 C         140.0148  141.0819  162.7060 C.ar    1  UNL1       -0.0194
     13 C         140.8582  141.7692  161.6734 C.ar    1  UNL1       -0.0042
     14 C         140.3152  142.0004  160.2943 C.ar    1  UNL1       -0.0003
     15 C         138.9289  141.5444  159.9480 C.ar    1  UNL1        0.0000
     16 C         138.0855  140.8571  160.9807 C.ar    1  UNL1       -0.0003
     17 C         138.6285  140.6259  162.3596 C.ar    1  UNL1       -0.0042
     18 C         138.3859  141.7756  158.5690 C.ar    1  UNL1        0.0013
     19 C         138.8004  142.9911  157.7938 C.ar    1  UNL1        0.0001
     20 C         138.2574  143.2223  156.4147 C.ar    1  UNL1        0.0013
     21 C         137.2999  142.2380  155.8109 C.ar    1  UNL1        0.0158
     22 C         136.8854  141.0226  156.5861 C.ar    1  UNL1        0.0644
     23 C         137.4284  140.7914  157.9651 C.ar    1  UNL1        0.0158
     24 N         135.9280  140.0384  155.9822 N.pl3   1  UNL1       -0.2187
     25 H         136.2656  139.2025  155.5866 H       1  UNL1        0.1734
     26 S         134.4563  140.3278  155.9811 S.O2    1  UNL1        0.0558
     27 C         132.9844  140.6173  155.9800 C.3     1  UNL1        0.1996
     28 O         134.3448  139.7668  157.3678 O.2     1  UNL1       -0.1544
     29 O         134.5677  140.8889  154.5944 O.2     1  UNL1       -0.1544
     30 N         141.0792  138.2358  163.8961 N.3     1  UNL1       -0.1827
     31 H         141.5831  137.5762  164.4890 H       1  UNL1        0.1484
     32 S         141.7026  138.1573  162.5341 S.O2    1  UNL1        0.0390
     33 O         142.9789  138.7202  163.0857 O.2     1  UNL1       -0.1576
     34 O         140.4265  137.5943  161.9824 O.2     1  UNL1       -0.1576
     35 C         143.7634  137.6750  161.0272 C.3     1  UNL1        0.0270
     36 C         142.3261  138.0788  161.1720 C.3     1  UNL1        0.1457
     37 C         141.5121  138.4041  159.9548 C.3     1  UNL1        0.0270
@<TRIPOS>BOND
     1    35    36    1
     2    36    37    1
     3    36    32    1
     4    32    33    2
     5    32    34    2
     6    32    30    1
     7     1    30    1
     8     1     2    1
     9     2     3    1
    10     3     6    1
    11     6     7   ar
    12     7     8   ar
    13     8     9   ar
    14     9    10   ar
    15    10    11   ar
    16     3     4    1
    17     4     5    1
    18     5    12    1
    19    12    13   ar
    20    13    14   ar
    21    14    15   ar
    22    15    18    1
    23    18    19   ar
    24    19    20   ar
    25    20    21   ar
    26    21    22   ar
    27    22    24    1
    28    24    26    1
    29    26    27    1
    30    26    28    2
    31    26    29    2
    32    22    23   ar
    33    15    16   ar
    34    16    17   ar
    35     5     1    1
    36    17    12   ar
    37    11     6   ar
    38    23    18   ar
    39    30    31    1
    40    24    25    1
@<TRIPOS>MOLECULE
*****
 37 40 0 0 0
SMALL
GASTEIGER

@<TRIPOS>ATOM
      1 C         141.3381  139.3125  164.8174 C.3     1  UNL1        0.1004
      2 C         141.1497  139.7082  166.2519 C.3     1  UNL1        0.1085
      3 N         141.8001  141.0448  166.4534 N.pl3   1  UNL1       -0.3057
      4 C         142.3905  141.4751  165.1434 C.3     1  UNL1        0.0966
      5 C         142.1051  140.4045  164.1323 C.3     1  UNL1        0.0598
      6 C         141.8510  141.8156  167.7392 C.ar    1  UNL1        0.0479
      7 C         140.6407  142.5640  168.2135 C.ar    1  UNL1        0.0145
      8 C         140.6917  143.3348  169.4992 C.ar    1  UNL1        0.0013
      9 C         141.9531  143.3573  170.3107 C.ar    1  UNL1        0.0001
     10 C         143.1634  142.6089  169.8365 C.ar    1  UNL1        0.0013
     11 C         143.1124  141.8381  168.5507 C.ar    1  UNL1        0.0145
     12 C         142.5146  140.4228  162.6894 C.ar    1  UNL1       -0.0194
     13 C         141.7979  141.3126  161.7175 C.ar    1  UNL1       -0.0042
     14 C         142.2074  141.3309  160.2746 C.ar    1  UNL1       -0.0003
     15 C         143.3336  140.4592  159.8036 C.ar    1  UNL1        0.0000
     16 C         144.0504  139.5693  160.7755 C.ar    1  UNL1       -0.0003
     17 C         143.6408  139.5511  162.2183 C.ar    1  UNL1       -0.0042
     18 C         143.7431  140.4775  158.3607 C.ar    1  UNL1        0.0013
     19 C         143.2917  139.3835  157.4391 C.ar    1  UNL1        0.0001
     20 C         143.7013  139.4017  155.9962 C.ar    1  UNL1        0.0013
     21 C         144.5622  140.5140  155.4749 C.ar    1  UNL1        0.0158
     22 C         145.0136  141.6080  156.3965 C.ar    1  UNL1        0.0644
     23 C         144.6041  141.5898  157.8395 C.ar    1  UNL1        0.0158
     24 N         145.8746  142.7202  155.8752 N.pl3   1  UNL1       -0.2187
     25 H         145.5266  143.6408  155.8481 H       1  UNL1        0.1734
     26 S         147.2656  142.4299  155.3952 S.O2    1  UNL1        0.0558
     27 C         148.6568  142.1396  154.9152 C.3     1  UNL1        0.1996
     28 O         147.7660  142.4913  156.8080 O.2     1  UNL1       -0.1544
     29 O         146.7653  142.3685  153.9825 O.2     1  UNL1       -0.1544
     30 N         140.8461  138.0470  164.1799 N.3     1  UNL1       -0.1827
     31 H         141.6691  137.4780  163.9814 H       1  UNL1        0.1484
     32 S         140.0457  138.1075  162.9128 S.O2    1  UNL1        0.0390
     33 O         141.0596  137.2376  162.2307 O.2     1  UNL1       -0.1576
     34 O         139.0318  138.9774  163.5948 O.2     1  UNL1       -0.1576
     35 C         139.9416  138.3093  160.3246 C.3     1  UNL1        0.0270
     36 C         139.2452  138.1681  161.6456 C.3     1  UNL1        0.1457
     37 C         137.7484  138.0874  161.6996 C.3     1  UNL1        0.0270
@<TRIPOS>BOND
     1    35    36    1
     2    36    37    1
     3    36    32    1
     4    32    33    2
     5    32    34    2
     6    32    30    1
     7     1    30    1
     8     1     2    1
     9     2     3    1
    10     3     6    1
    11     6     7   ar
    12     7     8   ar
    13     8     9   ar
    14     9    10   ar
    15    10    11   ar
    16     3     4    1
    17     4     5    1
    18     5    12    1
    19    12    13   ar
    20    13    14   ar
    21    14    15   ar
    22    15    18    1
    23    18    19   ar
    24    19    20   ar
    25    20    21   ar
    26    21    22   ar
    27    22    24    1
    28    24    26    1
    29    26    27    1
    30    26    28    2
    31    26    29    2
    32    22    23   ar
    33    15    16   ar
    34    16    17   ar
    35     5     1    1
    36    17    12   ar
    37    11     6   ar
    38    23    18   ar
    39    30    31    1
    40    24    25    1
@<TRIPOS>MOLECULE
*****
 37 40 0 0 0
SMALL
GASTEIGER

@<TRIPOS>ATOM
      1 C         139.7574  142.8563  164.0599 C.3     1  UNL1        0.1004
      2 C         139.9492  143.3386  165.4672 C.3     1  UNL1        0.1085
      3 N         140.9547  142.4448  166.1306 N.pl3   1  UNL1       -0.3057
      4 C         141.3843  141.4100  165.1333 C.3     1  UNL1        0.0966
      5 C         140.6444  141.6643  163.8535 C.3     1  UNL1        0.0598
      6 C         141.4444  142.5647  167.5434 C.ar    1  UNL1        0.0479
      7 C         140.5300  143.0847  168.6126 C.ar    1  UNL1        0.0145
      8 C         141.0198  143.2046  170.0253 C.ar    1  UNL1        0.0013
      9 C         142.4240  142.8044  170.3687 C.ar    1  UNL1        0.0001
     10 C         143.3385  142.2844  169.2995 C.ar    1  UNL1        0.0013
     11 C         142.8487  142.1645  167.8868 C.ar    1  UNL1        0.0145
     12 C         140.7695  140.8667  162.5893 C.ar    1  UNL1       -0.0194
     13 C         141.9367  141.0902  161.6740 C.ar    1  UNL1       -0.0042
     14 C         142.0618  140.2926  160.4097 C.ar    1  UNL1       -0.0003
     15 C         141.0198  139.2716  160.0609 C.ar    1  UNL1        0.0000
     16 C         139.8525  139.0482  160.9763 C.ar    1  UNL1       -0.0003
     17 C         139.7275  139.8457  162.2404 C.ar    1  UNL1       -0.0042
     18 C         141.1449  138.4740  158.7967 C.ar    1  UNL1        0.0013
     19 C         142.4929  138.0034  158.3372 C.ar    1  UNL1        0.0001
     20 C         142.6180  137.2058  157.0730 C.ar    1  UNL1        0.0013
     21 C         141.3950  136.8789  156.2683 C.ar    1  UNL1        0.0158
     22 C         140.0469  137.3495  156.7278 C.ar    1  UNL1        0.0644
     23 C         139.9218  138.1471  157.9920 C.ar    1  UNL1        0.0158
     24 N         138.8240  137.0226  155.9232 N.pl3   1  UNL1       -0.2187
     25 H         138.2324  136.2872  156.2034 H       1  UNL1        0.1734
     26 S         138.5023  137.8161  154.6916 S.O2    1  UNL1        0.0558
     27 C         138.1806  138.6096  153.4600 C.3     1  UNL1        0.1996
     28 O         139.1239  136.7482  153.8411 O.2     1  UNL1       -0.1544
     29 O         137.8807  138.8840  155.5420 O.2     1  UNL1       -0.1544
     30 N         138.8398  143.4599  163.0383 N.3     1  UNL1       -0.1827
     31 H         138.0560  142.8164  162.9298 H       1  UNL1        0.1484
     32 S         139.3472  143.7608  161.6591 S.O2    1  UNL1        0.0390
     33 O         138.2192  142.9661  161.0708 O.2     1  UNL1       -0.1576
     34 O         140.4752  144.5554  162.2474 O.2     1  UNL1       -0.1576
     35 C         140.5752  145.3492  160.0102 C.3     1  UNL1        0.0270
     36 C         139.8546  144.0616  160.2799 C.3     1  UNL1        0.1457
     37 C         139.6412  143.0748  159.1706 C.3     1  UNL1        0.0270
@<TRIPOS>BOND
     1    35    36    1
     2    36    37    1
     3    36    32    1
     4    32    33    2
     5    32    34    2
     6    32    30    1
     7     1    30    1
     8     1     2    1
     9     2     3    1
    10     3     6    1
    11     6     7   ar
    12     7     8   ar
    13     8     9   ar
    14     9    10   ar
    15    10    11   ar
    16     3     4    1
    17     4     5    1
    18     5    12    1
    19    12    13   ar
    20    13    14   ar
    21    14    15   ar
    22    15    18    1
    23    18    19   ar
    24    19    20   ar
    25    20    21   ar
    26    21    22   ar
    27    22    24    1
    28    24    26    1
    29    26    27    1
    30    26    28    2
    31    26    29    2
    32    22    23   ar
    33    15    16   ar
    34    16    17   ar
    35     5     1    1
    36    17    12   ar
    37    11     6   ar
    38    23    18   ar
    39    30    31    1
    40    24    25    1
