@<TRIPOS>MOLECULE
*****
 32 35 0 0 0
SMALL
GASTEIGER

@<TRIPOS>ATOM
      1 N         138.6349  138.9524  162.8941 N.3     1  UNL1       -0.2724
      2 C         139.0284  137.7290  163.6677 C.3     1  UNL1        0.0758
      3 C         138.9753  137.7402  165.1668 C.3     1  UNL1        0.0609
      4 C         138.5285  138.9748  165.8922 C.3     1  UNL1        0.1687
      5 C         138.1349  140.1982  165.1186 C.3     1  UNL1        0.0609
      6 C         138.1881  140.1870  163.6196 C.3     1  UNL1        0.0758
      7 C         138.6880  138.9412  161.3951 C.3     1  UNL1        0.0721
      8 N         140.0413  142.6075  159.1643 N.3     1  UNL1       -0.2648
      9 C         138.5813  142.3861  159.4276 C.3     1  UNL1        0.0726
     10 C         138.1303  141.1640  160.1712 C.3     1  UNL1        0.0188
     11 C         139.1392  140.1633  160.6515 C.3     1  UNL1        0.0188
     12 C         140.5992  140.3848  160.3882 C.3     1  UNL1        0.0188
     13 C         141.0502  141.6068  159.6446 C.3     1  UNL1        0.0726
     14 C         140.8405  145.4623  156.6588 C.3     1  UNL1        0.1708
     15 C         140.1976  144.1468  156.9845 C.3     1  UNL1        0.0710
     16 C         140.4925  143.8297  158.4206 C.3     1  UNL1        0.1612
     17 C         141.3176  144.9492  158.9826 C.2     1  UNL1        0.3316
     18 O         141.8365  145.0432  160.3868 O.2     1  UNL1       -0.2486
     19 O         141.5327  145.9582  157.8937 O.3     1  UNL1       -0.4513
     20 C         139.8921  147.3378  155.1313 C.3     1  UNL1        0.0038
     21 C         140.7986  146.1595  155.3314 C.3     1  UNL1        0.0437
     22 O         138.4753  138.9860  167.3912 O.3     1  UNL1       -0.4790
     23 C         139.3889  139.8875  168.1673 C.ar    1  UNL1        0.1392
     24 C         138.9986  140.3491  169.5401 C.ar    1  UNL1        0.0367
     25 C         139.9122  141.2507  170.3163 C.ar    1  UNL1        0.0021
     26 C         141.2162  141.6907  169.7197 C.ar    1  UNL1        0.0177
     27 C         141.6066  141.2291  168.3469 C.ar    1  UNL1        0.0590
     28 CL        142.9106  141.6691  167.7503 Cl      1  UNL1       -0.0824
     29 C         140.6930  140.3275  167.5707 C.ar    1  UNL1        0.0480
     30 C         142.1298  142.5923  170.4959 C.3     1  UNL1        0.1644
     31 O         142.2609  142.4285  171.9811 O.3     1  UNL1       -0.3772
     32 H         141.4171  142.6475  172.4064 H       1  UNL1        0.2109
@<TRIPOS>BOND
     1    20    21    1
     2    21    14    1
     3    14    15    1
     4    15    16    1
     5    16     8    1
     6     8     9    1
     7     9    10    1
     8    10    11    1
     9    11     7    1
    10     7     1    1
    11     1     2    1
    12     2     3    1
    13     3     4    1
    14     4    22    1
    15    22    23    1
    16    23    24   ar
    17    24    25   ar
    18    25    26   ar
    19    26    30    1
    20    30    31    1
    21    26    27   ar
    22    27    28    1
    23    27    29   ar
    24     4     5    1
    25     5     6    1
    26    11    12    1
    27    12    13    1
    28    16    17    1
    29    17    18    2
    30    17    19    1
    31    19    14    1
    32    13     8    1
    33     6     1    1
    34    29    23   ar
    35    31    32    1
@<TRIPOS>MOLECULE
*****
 32 35 0 0 0
SMALL
GASTEIGER

@<TRIPOS>ATOM
      1 N         138.6148  138.7812  162.9725 N.3     1  UNL1       -0.2724
      2 C         138.1863  140.0603  163.6284 C.3     1  UNL1        0.0758
      3 C         138.0980  140.1437  165.1235 C.3     1  UNL1        0.0609
      4 C         138.4382  138.9479  165.9627 C.3     1  UNL1        0.1687
      5 C         138.8667  137.6687  165.3069 C.3     1  UNL1        0.0609
      6 C         138.9550  137.5853  163.8118 C.3     1  UNL1        0.0758
      7 C         138.7030  138.6978  161.4775 C.3     1  UNL1        0.0721
      8 N         142.1634  140.5990  159.3184 N.3     1  UNL1       -0.2648
      9 C         142.4169  139.6445  160.4474 C.3     1  UNL1        0.0726
     10 C         141.2635  139.0108  161.1671 C.3     1  UNL1        0.0188
     11 C         139.8565  139.3316  160.7578 C.3     1  UNL1        0.0188
     12 C         139.6030  140.2860  159.6287 C.3     1  UNL1        0.0188
     13 C         140.7564  140.9197  158.9091 C.3     1  UNL1        0.0726
     14 C         145.1647  141.5936  157.0670 C.3     1  UNL1        0.1708
     15 C         144.1127  140.6113  157.4895 C.3     1  UNL1        0.0710
     16 C         143.3169  141.2327  158.5987 C.3     1  UNL1        0.1612
     17 C         143.8769  142.5991  158.8619 C.2     1  UNL1        0.3316
     18 O         143.3819  143.5717  159.8909 O.2     1  UNL1       -0.2486
     19 O         145.0189  142.8222  157.9153 O.3     1  UNL1       -0.4513
     20 C         147.5053  142.0899  156.0546 C.3     1  UNL1        0.0038
     21 C         146.1835  141.3842  155.9862 C.3     1  UNL1        0.0437
     22 O         138.3499  139.0312  167.4578 O.3     1  UNL1       -0.4790
     23 C         139.3509  139.8442  168.2240 C.ar    1  UNL1        0.1392
     24 C         139.0988  140.1814  169.6637 C.ar    1  UNL1        0.0367
     25 C         140.0998  140.9943  170.4300 C.ar    1  UNL1        0.0021
     26 C         141.3528  141.4701  169.7565 C.ar    1  UNL1        0.0177
     27 C         141.6049  141.1330  168.3168 C.ar    1  UNL1        0.0590
     28 CL        142.8579  141.6088  167.6434 Cl      1  UNL1       -0.0824
     29 C         140.6039  140.3200  167.5505 C.ar    1  UNL1        0.0480
     30 C         142.3537  142.2831  170.5228 C.3     1  UNL1        0.1644
     31 O         142.1701  142.5056  171.9948 O.3     1  UNL1       -0.3772
     32 H         141.3764  143.0427  172.1441 H       1  UNL1        0.2109
@<TRIPOS>BOND
     1    20    21    1
     2    21    14    1
     3    14    15    1
     4    15    16    1
     5    16     8    1
     6     8     9    1
     7     9    10    1
     8    10    11    1
     9    11     7    1
    10     7     1    1
    11     1     2    1
    12     2     3    1
    13     3     4    1
    14     4    22    1
    15    22    23    1
    16    23    24   ar
    17    24    25   ar
    18    25    26   ar
    19    26    30    1
    20    30    31    1
    21    26    27   ar
    22    27    28    1
    23    27    29   ar
    24     4     5    1
    25     5     6    1
    26    11    12    1
    27    12    13    1
    28    16    17    1
    29    17    18    2
    30    17    19    1
    31    19    14    1
    32    13     8    1
    33     6     1    1
    34    29    23   ar
    35    31    32    1
@<TRIPOS>MOLECULE
*****
 32 35 0 0 0
SMALL
GASTEIGER

@<TRIPOS>ATOM
      1 N         139.8556  138.7503  159.4753 N.3     1  UNL1       -0.2724
      2 C         141.1930  138.5925  160.1359 C.3     1  UNL1        0.0758
      3 C         142.3550  138.0507  159.3571 C.3     1  UNL1        0.0609
      4 C         142.1795  137.6667  157.9178 C.3     1  UNL1        0.1687
      5 C         140.8421  137.8245  157.2572 C.3     1  UNL1        0.0609
      6 C         139.6802  138.3662  158.0359 C.3     1  UNL1        0.0758
      7 C         138.6937  139.2921  160.2540 C.3     1  UNL1        0.0721
      8 N         138.9513  139.6357  164.7334 N.3     1  UNL1       -0.2648
      9 C         138.7619  138.2922  164.0940 C.3     1  UNL1        0.0726
     10 C         138.6760  138.1777  162.6009 C.3     1  UNL1        0.0188
     11 C         138.7796  139.4067  161.7472 C.3     1  UNL1        0.0188
     12 C         138.9691  140.7502  162.3866 C.3     1  UNL1        0.0188
     13 C         139.0549  140.8648  163.8797 C.3     1  UNL1        0.0726
     14 C         139.7107  140.4411  168.4537 C.3     1  UNL1        0.1708
     15 C         139.9635  140.6500  166.9900 C.3     1  UNL1        0.0710
     16 C         139.0372  139.7503  166.2266 C.3     1  UNL1        0.1612
     17 C         138.2120  138.9855  167.2185 C.2     1  UNL1        0.3316
     18 O         137.1559  137.9717  166.8915 O.2     1  UNL1       -0.2486
     19 O         138.6282  139.4123  168.5949 O.3     1  UNL1       -0.4513
     20 C         139.9586  142.4955  170.0247 C.3     1  UNL1        0.0038
     21 C         140.4164  141.1385  169.5787 C.3     1  UNL1        0.0437
     22 O         143.3414  137.1249  157.1391 O.3     1  UNL1       -0.4790
     23 C         143.2043  135.8335  156.3885 C.ar    1  UNL1        0.1392
     24 C         142.8393  135.8468  154.9336 C.ar    1  UNL1        0.0367
     25 C         142.7023  134.5554  154.1829 C.ar    1  UNL1        0.0021
     26 C         142.9303  133.2507  154.8871 C.ar    1  UNL1        0.0177
     27 C         143.2953  133.2374  156.3420 C.ar    1  UNL1        0.0590
     28 CL        143.5233  131.9328  157.0461 Cl      1  UNL1       -0.0824
     29 C         143.4324  134.5288  157.0927 C.ar    1  UNL1        0.0480
     30 C         142.7933  131.9593  154.1364 C.3     1  UNL1        0.1644
     31 O         141.5075  131.1893  154.1971 O.3     1  UNL1       -0.3772
     32 H         141.3657  130.8674  155.1010 H       1  UNL1        0.2109
@<TRIPOS>BOND
     1    20    21    1
     2    21    14    1
     3    14    15    1
     4    15    16    1
     5    16     8    1
     6     8     9    1
     7     9    10    1
     8    10    11    1
     9    11     7    1
    10     7     1    1
    11     1     2    1
    12     2     3    1
    13     3     4    1
    14     4    22    1
    15    22    23    1
    16    23    24   ar
    17    24    25   ar
    18    25    26   ar
    19    26    30    1
    20    30    31    1
    21    26    27   ar
    22    27    28    1
    23    27    29   ar
    24     4     5    1
    25     5     6    1
    26    11    12    1
    27    12    13    1
    28    16    17    1
    29    17    18    2
    30    17    19    1
    31    19    14    1
    32    13     8    1
    33     6     1    1
    34    29    23   ar
    35    31    32    1
@<TRIPOS>MOLECULE
*****
 32 35 0 0 0
SMALL
GASTEIGER

@<TRIPOS>ATOM
      1 N         138.5753  138.6201  162.6656 N.3     1  UNL1       -0.2724
      2 C         138.1858  139.9703  163.1901 C.3     1  UNL1        0.0758
      3 C         138.1644  140.2231  164.6685 C.3     1  UNL1        0.0609
      4 C         138.5325  139.1256  165.6224 C.3     1  UNL1        0.1687
      5 C         138.9219  137.7753  165.0980 C.3     1  UNL1        0.0609
      6 C         138.9433  137.5225  163.6196 C.3     1  UNL1        0.0758
      7 C         138.5966  138.3673  161.1873 C.3     1  UNL1        0.0721
      8 N         142.1838  139.5693  158.7507 N.3     1  UNL1       -0.2648
      9 C         140.8056  139.9413  158.2902 C.3     1  UNL1        0.0726
     10 C         139.6099  139.5407  159.1024 C.3     1  UNL1        0.0188
     11 C         139.7924  138.7679  160.3751 C.3     1  UNL1        0.0188
     12 C         141.1706  138.3959  160.8355 C.3     1  UNL1        0.0188
     13 C         142.3663  138.7965  160.0233 C.3     1  UNL1        0.0726
     14 C         145.2668  141.2280  157.0744 C.3     1  UNL1        0.1708
     15 C         144.1586  141.2434  158.0852 C.3     1  UNL1        0.0710
     16 C         143.3796  139.9699  157.9384 C.3     1  UNL1        0.1612
     17 C         144.0063  139.1675  156.8369 C.2     1  UNL1        0.3316
     18 O         143.5473  137.8236  156.3541 O.2     1  UNL1       -0.2486
     19 O         145.1726  139.9450  156.3029 O.3     1  UNL1       -0.4513
     20 C         147.4411  142.0809  155.9365 C.3     1  UNL1        0.0038
     21 C         146.2894  142.3063  156.8708 C.3     1  UNL1        0.0437
     22 O         138.5111  139.3784  167.1008 O.3     1  UNL1       -0.4790
     23 C         139.7251  139.9344  167.7843 C.ar    1  UNL1        0.1392
     24 C         141.0271  140.0238  167.0449 C.ar    1  UNL1        0.0367
     25 C         142.2411  140.5798  167.7284 C.ar    1  UNL1        0.0021
     26 C         142.1530  141.0464  169.1512 C.ar    1  UNL1        0.0177
     27 C         140.8510  140.9571  169.8906 C.ar    1  UNL1        0.0590
     28 CL        140.7629  141.4238  171.3134 Cl      1  UNL1       -0.0824
     29 C         139.6370  140.4011  169.2072 C.ar    1  UNL1        0.0480
     30 C         143.3670  141.6024  169.8347 C.3     1  UNL1        0.1644
     31 O         144.1058  142.7584  169.2281 O.3     1  UNL1       -0.3772
     32 H         144.5046  142.4823  168.3881 H       1  UNL1        0.2109
@<TRIPOS>BOND
     1    20    21    1
     2    21    14    1
     3    14    15    1
     4    15    16    1
     5    16     8    1
     6     8     9    1
     7     9    10    1
     8    10    11    1
     9    11     7    1
    10     7     1    1
    11     1     2    1
    12     2     3    1
    13     3     4    1
    14     4    22    1
    15    22    23    1
    16    23    24   ar
    17    24    25   ar
    18    25    26   ar
    19    26    30    1
    20    30    31    1
    21    26    27   ar
    22    27    28    1
    23    27    29   ar
    24     4     5    1
    25     5     6    1
    26    11    12    1
    27    12    13    1
    28    16    17    1
    29    17    18    2
    30    17    19    1
    31    19    14    1
    32    13     8    1
    33     6     1    1
    34    29    23   ar
    35    31    32    1
@<TRIPOS>MOLECULE
*****
 32 35 0 0 0
SMALL
GASTEIGER

@<TRIPOS>ATOM
      1 N         140.2795  138.4526  158.1544 N.3     1  UNL1       -0.2724
      2 C         141.7209  138.1856  158.4721 C.3     1  UNL1        0.0758
      3 C         142.5207  137.2586  157.6053 C.3     1  UNL1        0.0609
      4 C         141.8790  136.5987  156.4210 C.3     1  UNL1        0.1687
      5 C         140.4376  136.8657  156.1033 C.3     1  UNL1        0.0609
      6 C         139.6378  137.7926  156.9700 C.3     1  UNL1        0.0758
      7 C         139.4797  139.3795  159.0211 C.3     1  UNL1        0.0721
      8 N         140.2386  139.5304  163.4541 N.3     1  UNL1       -0.2648
      9 C         140.6803  140.6654  162.5785 C.3     1  UNL1        0.0726
     10 C         140.4273  140.6151  161.1009 C.3     1  UNL1        0.0188
     11 C         139.7327  139.4297  160.4988 C.3     1  UNL1        0.0188
     12 C         139.2910  138.2947  161.3744 C.3     1  UNL1        0.0188
     13 C         139.5440  138.3451  162.8520 C.3     1  UNL1        0.0726
     14 C         140.1661  139.8541  167.3214 C.3     1  UNL1        0.1708
     15 C         139.4839  139.9274  165.9875 C.3     1  UNL1        0.0710
     16 C         140.4915  139.5807  164.9318 C.3     1  UNL1        0.1612
     17 C         141.7965  139.2931  165.6132 C.2     1  UNL1        0.3316
     18 O         143.0777  138.9047  164.9367 O.2     1  UNL1       -0.2486
     19 O         141.5954  139.4621  167.0900 O.3     1  UNL1       -0.4513
     20 C         139.8619  141.3832  169.3997 C.3     1  UNL1        0.0038
     21 C         139.5306  140.1253  168.6528 C.3     1  UNL1        0.0437
     22 O         142.6788  135.6718  155.5543 O.3     1  UNL1       -0.4790
     23 C         142.9199  134.2574  155.9915 C.ar    1  UNL1        0.1392
     24 C         141.9794  133.1697  155.5646 C.ar    1  UNL1        0.0367
     25 C         142.2206  131.7552  156.0018 C.ar    1  UNL1        0.0021
     26 C         143.4023  131.4285  156.8659 C.ar    1  UNL1        0.0177
     27 C         144.3429  132.5162  157.2929 C.ar    1  UNL1        0.0590
     28 CL        145.5246  132.1894  158.1570 Cl      1  UNL1       -0.0824
     29 C         144.1017  133.9306  156.8557 C.ar    1  UNL1        0.0480
     30 C         143.6435  130.0140  157.3031 C.3     1  UNL1        0.1644
     31 O         143.3461  129.6044  158.7151 O.3     1  UNL1       -0.3772
     32 H         143.9485  130.0660  159.3193 H       1  UNL1        0.2109
@<TRIPOS>BOND
     1    20    21    1
     2    21    14    1
     3    14    15    1
     4    15    16    1
     5    16     8    1
     6     8     9    1
     7     9    10    1
     8    10    11    1
     9    11     7    1
    10     7     1    1
    11     1     2    1
    12     2     3    1
    13     3     4    1
    14     4    22    1
    15    22    23    1
    16    23    24   ar
    17    24    25   ar
    18    25    26   ar
    19    26    30    1
    20    30    31    1
    21    26    27   ar
    22    27    28    1
    23    27    29   ar
    24     4     5    1
    25     5     6    1
    26    11    12    1
    27    12    13    1
    28    16    17    1
    29    17    18    2
    30    17    19    1
    31    19    14    1
    32    13     8    1
    33     6     1    1
    34    29    23   ar
    35    31    32    1
@<TRIPOS>MOLECULE
*****
 32 35 0 0 0
SMALL
GASTEIGER

@<TRIPOS>ATOM
      1 N         140.0862  139.0936  159.6718 N.3     1  UNL1       -0.2724
      2 C         139.6676  139.0506  158.2320 C.3     1  UNL1        0.0758
      3 C         140.2142  140.0557  157.2618 C.3     1  UNL1        0.0609
      4 C         141.1792  141.1036  157.7314 C.3     1  UNL1        0.1687
      5 C         141.5977  141.1466  159.1712 C.3     1  UNL1        0.0609
      6 C         141.0512  140.1416  160.1414 C.3     1  UNL1        0.0758
      7 C         139.5397  138.0886  160.6420 C.3     1  UNL1        0.0721
      8 N         139.2767  139.0991  165.0192 N.3     1  UNL1       -0.2648
      9 C         138.2792  139.6713  164.0562 C.3     1  UNL1        0.0726
     10 C         138.3669  139.3345  162.5971 C.3     1  UNL1        0.0188
     11 C         139.4520  138.4254  162.1011 C.3     1  UNL1        0.0188
     12 C         140.4495  137.8532  163.0642 C.3     1  UNL1        0.0188
     13 C         140.3618  138.1900  164.5232 C.3     1  UNL1        0.0726
     14 C         139.6725  140.3745  168.6637 C.3     1  UNL1        0.1708
     15 C         140.1379  140.3140  167.2390 C.3     1  UNL1        0.0710
     16 C         139.1890  139.4359  166.4783 C.3     1  UNL1        0.1612
     17 C         138.1371  138.9538  167.4329 C.2     1  UNL1        0.3316
     18 O         136.9882  138.0502  167.0959 O.2     1  UNL1       -0.2486
     19 O         138.4359  139.5339  168.7835 O.3     1  UNL1       -0.4513
     20 C         140.1012  142.6184  169.9012 C.3     1  UNL1        0.0038
     21 C         140.3284  141.1411  169.7737 C.3     1  UNL1        0.0437
     22 O         141.7257  142.1086  156.7613 O.3     1  UNL1       -0.4790
     23 C         141.0284  143.4228  156.5703 C.ar    1  UNL1        0.1392
     24 C         141.6274  144.6783  157.1315 C.ar    1  UNL1        0.0367
     25 C         140.9301  145.9925  156.9405 C.ar    1  UNL1        0.0021
     26 C         139.6337  146.0513  156.1883 C.ar    1  UNL1        0.0177
     27 C         139.0346  144.7959  155.6270 C.ar    1  UNL1        0.0590
     28 CL        137.7382  144.8547  154.8748 Cl      1  UNL1       -0.0824
     29 C         139.7319  143.4816  155.8180 C.ar    1  UNL1        0.0480
     30 C         138.9364  147.3656  155.9973 C.3     1  UNL1        0.1644
     31 O         138.8677  148.3494  157.1275 O.3     1  UNL1       -0.3772
     32 H         138.3272  147.9815  157.8440 H       1  UNL1        0.2109
@<TRIPOS>BOND
     1    20    21    1
     2    21    14    1
     3    14    15    1
     4    15    16    1
     5    16     8    1
     6     8     9    1
     7     9    10    1
     8    10    11    1
     9    11     7    1
    10     7     1    1
    11     1     2    1
    12     2     3    1
    13     3     4    1
    14     4    22    1
    15    22    23    1
    16    23    24   ar
    17    24    25   ar
    18    25    26   ar
    19    26    30    1
    20    30    31    1
    21    26    27   ar
    22    27    28    1
    23    27    29   ar
    24     4     5    1
    25     5     6    1
    26    11    12    1
    27    12    13    1
    28    16    17    1
    29    17    18    2
    30    17    19    1
    31    19    14    1
    32    13     8    1
    33     6     1    1
    34    29    23   ar
    35    31    32    1
@<TRIPOS>MOLECULE
*****
 32 35 0 0 0
SMALL
GASTEIGER

@<TRIPOS>ATOM
      1 N         143.3903  141.7179  162.1080 N.3     1  UNL1       -0.2724
      2 C         143.9579  142.2745  163.3800 C.3     1  UNL1        0.0758
      3 C         143.0405  142.8063  164.4411 C.3     1  UNL1        0.0609
      4 C         141.5557  142.7815  164.2301 C.3     1  UNL1        0.1687
      5 C         140.9881  142.2249  162.9581 C.3     1  UNL1        0.0609
      6 C         141.9053  141.6931  161.8970 C.3     1  UNL1        0.0758
      7 C         144.3075  141.1862  161.0470 C.3     1  UNL1        0.0721
      8 N         142.8484  138.0365  158.1834 N.3     1  UNL1       -0.2648
      9 C         142.9793  137.7197  159.6436 C.3     1  UNL1        0.0726
     10 C         143.4657  138.7696  160.5981 C.3     1  UNL1        0.0188
     11 C         143.8211  140.1363  160.0924 C.3     1  UNL1        0.0188
     12 C         143.6902  140.4531  158.6321 C.3     1  UNL1        0.0188
     13 C         143.2039  139.4032  157.6776 C.3     1  UNL1        0.0726
     14 C         142.2438  134.9793  155.8695 C.3     1  UNL1        0.1708
     15 C         143.0958  135.7357  156.8452 C.3     1  UNL1        0.0710
     16 C         142.3620  136.9866  157.2288 C.3     1  UNL1        0.1612
     17 C         141.0566  137.0031  156.4902 C.2     1  UNL1        0.3316
     18 O         140.0083  138.0725  156.5765 O.2     1  UNL1       -0.2486
     19 O         140.9835  135.7626  155.6501 O.3     1  UNL1       -0.4513
     20 C         141.8587  132.4218  155.6223 C.3     1  UNL1        0.0038
     21 C         142.5911  133.6695  155.2263 C.3     1  UNL1        0.0437
     22 O         140.6384  143.3133  165.2911 O.3     1  UNL1       -0.4790
     23 C         140.3187  142.4766  166.4944 C.ar    1  UNL1        0.1392
     24 C         140.7146  142.9480  167.8622 C.ar    1  UNL1        0.0367
     25 C         140.3949  142.1113  169.0655 C.ar    1  UNL1        0.0021
     26 C         139.6794  140.8033  168.9009 C.ar    1  UNL1        0.0177
     27 C         139.2835  140.3319  167.5329 C.ar    1  UNL1        0.0590
     28 CL        138.5680  139.0239  167.3683 Cl      1  UNL1       -0.0824
     29 C         139.6032  141.1686  166.3297 C.ar    1  UNL1        0.0480
     30 C         139.3597  139.9667  170.1041 C.3     1  UNL1        0.1644
     31 O         140.4671  139.3315  170.8916 O.3     1  UNL1       -0.3772
     32 H         140.9122  138.6656  170.3445 H       1  UNL1        0.2109
@<TRIPOS>BOND
     1    20    21    1
     2    21    14    1
     3    14    15    1
     4    15    16    1
     5    16     8    1
     6     8     9    1
     7     9    10    1
     8    10    11    1
     9    11     7    1
    10     7     1    1
    11     1     2    1
    12     2     3    1
    13     3     4    1
    14     4    22    1
    15    22    23    1
    16    23    24   ar
    17    24    25   ar
    18    25    26   ar
    19    26    30    1
    20    30    31    1
    21    26    27   ar
    22    27    28    1
    23    27    29   ar
    24     4     5    1
    25     5     6    1
    26    11    12    1
    27    12    13    1
    28    16    17    1
    29    17    18    2
    30    17    19    1
    31    19    14    1
    32    13     8    1
    33     6     1    1
    34    29    23   ar
    35    31    32    1
@<TRIPOS>MOLECULE
*****
 32 35 0 0 0
SMALL
GASTEIGER

@<TRIPOS>ATOM
      1 N         140.5215  138.4308  162.4933 N.3     1  UNL1       -0.2724
      2 C         140.8281  137.5936  163.6996 C.3     1  UNL1        0.0758
      3 C         141.5754  138.1892  164.8558 C.3     1  UNL1        0.0609
      4 C         142.0162  139.6221  164.8057 C.3     1  UNL1        0.1687
      5 C         141.7097  140.4594  163.5994 C.3     1  UNL1        0.0609
      6 C         140.9624  139.8638  162.4433 C.3     1  UNL1        0.0758
      7 C         139.7742  137.8352  161.3372 C.3     1  UNL1        0.0721
      8 N         137.9810  140.5138  158.1972 N.3     1  UNL1       -0.2648
      9 C         139.2565  139.7768  157.9149 C.3     1  UNL1        0.0726
     10 C         139.8543  138.8840  158.9615 C.3     1  UNL1        0.0188
     11 C         139.1764  138.7281  160.2905 C.3     1  UNL1        0.0188
     12 C         137.9008  139.4651  160.5729 C.3     1  UNL1        0.0188
     13 C         137.3031  140.3579  159.5262 C.3     1  UNL1        0.0726
     14 C         137.0225  143.2708  155.6387 C.3     1  UNL1        0.1708
     15 C         137.9365  142.7245  156.6952 C.3     1  UNL1        0.0710
     16 C         137.3832  141.4067  157.1505 C.3     1  UNL1        0.1612
     17 C         136.1272  141.1386  156.3755 C.2     1  UNL1        0.3316
     18 O         135.2485  139.9305  156.5110 O.2     1  UNL1       -0.2486
     19 O         135.9043  142.2906  155.4412 O.3     1  UNL1       -0.4513
     20 C         138.5476  145.2164  154.8397 C.3     1  UNL1        0.0038
     21 C         137.1961  144.5693  154.9081 C.3     1  UNL1        0.0437
     22 O         142.7636  140.2177  165.9618 O.3     1  UNL1       -0.4790
     23 C         142.0113  140.7813  167.1308 C.ar    1  UNL1        0.1392
     24 C         141.6423  142.2349  167.1549 C.ar    1  UNL1        0.0367
     25 C         140.8901  142.7985  168.3239 C.ar    1  UNL1        0.0021
     26 C         140.5068  141.9084  169.4688 C.ar    1  UNL1        0.0177
     27 C         140.8759  140.4546  169.4447 C.ar    1  UNL1        0.0590
     28 CL        140.4927  139.5645  170.5896 Cl      1  UNL1       -0.0824
     29 C         141.6281  139.8911  168.2757 C.ar    1  UNL1        0.0480
     30 C         139.7546  142.4719  170.6378 C.3     1  UNL1        0.1644
     31 O         140.3975  142.5166  171.9923 O.3     1  UNL1       -0.3772
     32 H         140.5407  141.6121  172.3122 H       1  UNL1        0.2109
@<TRIPOS>BOND
     1    20    21    1
     2    21    14    1
     3    14    15    1
     4    15    16    1
     5    16     8    1
     6     8     9    1
     7     9    10    1
     8    10    11    1
     9    11     7    1
    10     7     1    1
    11     1     2    1
    12     2     3    1
    13     3     4    1
    14     4    22    1
    15    22    23    1
    16    23    24   ar
    17    24    25   ar
    18    25    26   ar
    19    26    30    1
    20    30    31    1
    21    26    27   ar
    22    27    28    1
    23    27    29   ar
    24     4     5    1
    25     5     6    1
    26    11    12    1
    27    12    13    1
    28    16    17    1
    29    17    18    2
    30    17    19    1
    31    19    14    1
    32    13     8    1
    33     6     1    1
    34    29    23   ar
    35    31    32    1
@<TRIPOS>MOLECULE
*****
 32 35 0 0 0
SMALL
GASTEIGER

@<TRIPOS>ATOM
      1 N         140.3125  138.4252  158.0750 N.3     1  UNL1       -0.2724
      2 C         141.7631  138.1721  158.3608 C.3     1  UNL1        0.0758
      3 C         142.5408  137.2174  157.5043 C.3     1  UNL1        0.0609
      4 C         141.8680  136.5157  156.3620 C.3     1  UNL1        0.1687
      5 C         140.4174  136.7687  156.0762 C.3     1  UNL1        0.0609
      6 C         139.6396  137.7234  156.9326 C.3     1  UNL1        0.0758
      7 C         139.5347  139.3799  158.9314 C.3     1  UNL1        0.0721
      8 N         140.2381  139.5022  163.3744 N.3     1  UNL1       -0.2648
      9 C         139.5848  138.3044  162.7512 C.3     1  UNL1        0.0726
     10 C         139.3503  138.2636  161.2702 C.3     1  UNL1        0.0188
     11 C         139.7692  139.4207  160.4125 C.3     1  UNL1        0.0188
     12 C         140.4225  140.6185  161.0357 C.3     1  UNL1        0.0188
     13 C         140.6569  140.6592  162.5166 C.3     1  UNL1        0.0726
     14 C         141.5736  139.5725  167.0182 C.3     1  UNL1        0.1708
     15 C         141.8080  139.5132  165.5378 C.3     1  UNL1        0.0710
     16 C         140.4725  139.5429  164.8555 C.3     1  UNL1        0.1612
     17 C         139.4127  139.6207  165.9141 C.2     1  UNL1        0.3316
     18 O         137.9324  139.6713  165.6777 O.2     1  UNL1       -0.2486
     19 O         140.0932  139.6389  167.2508 O.3     1  UNL1       -0.4513
     20 C         142.2443  139.5299  169.5279 C.3     1  UNL1        0.0038
     21 C         142.6334  139.5664  168.0797 C.3     1  UNL1        0.0437
     22 O         142.6457  135.5609  155.5055 O.3     1  UNL1       -0.4790
     23 C         142.8395  134.1415  155.9502 C.ar    1  UNL1        0.1392
     24 C         143.8810  133.8132  156.9784 C.ar    1  UNL1        0.0367
     25 C         144.0747  132.3938  157.4231 C.ar    1  UNL1        0.0021
     26 C         143.2269  131.3027  156.8395 C.ar    1  UNL1        0.0177
     27 C         142.1853  131.6310  155.8112 C.ar    1  UNL1        0.0590
     28 CL        141.3374  130.5399  155.2276 Cl      1  UNL1       -0.0824
     29 C         141.9916  133.0504  155.3665 C.ar    1  UNL1        0.0480
     30 C         143.4206  129.8833  157.2841 C.3     1  UNL1        0.1644
     31 O         143.7868  129.5867  158.7082 O.3     1  UNL1       -0.3772
     32 H         144.6719  129.9373  158.8941 H       1  UNL1        0.2109
@<TRIPOS>BOND
     1    20    21    1
     2    21    14    1
     3    14    15    1
     4    15    16    1
     5    16     8    1
     6     8     9    1
     7     9    10    1
     8    10    11    1
     9    11     7    1
    10     7     1    1
    11     1     2    1
    12     2     3    1
    13     3     4    1
    14     4    22    1
    15    22    23    1
    16    23    24   ar
    17    24    25   ar
    18    25    26   ar
    19    26    30    1
    20    30    31    1
    21    26    27   ar
    22    27    28    1
    23    27    29   ar
    24     4     5    1
    25     5     6    1
    26    11    12    1
    27    12    13    1
    28    16    17    1
    29    17    18    2
    30    17    19    1
    31    19    14    1
    32    13     8    1
    33     6     1    1
    34    29    23   ar
    35    31    32    1
