@<TRIPOS>MOLECULE
*****
 27 29 0 0 0
SMALL
GASTEIGER

@<TRIPOS>ATOM
      1 N         141.1601  144.9088  160.1201 N.3     1  UNL1       -0.2677
      2 C         141.8681  143.7202  160.6997 C.3     1  UNL1        0.0940
      3 C         141.5104  143.2295  162.0713 C.3     1  UNL1        0.1123
      4 N         140.4447  143.9274  162.8633 N.am    1  UNL1       -0.2611
      5 C         140.0870  143.4366  164.2348 C.2     1  UNL1        0.3078
      6 O         139.0213  144.1345  165.0269 O.2     1  UNL1       -0.2522
      7 N         140.7950  142.2480  164.8144 N.am    1  UNL1       -0.2681
      8 C         139.7367  145.1160  162.2837 C.3     1  UNL1        0.1123
      9 C         140.0943  145.6067  160.9121 C.3     1  UNL1        0.0940
     10 H         141.4945  141.7900  164.2946 H       1  UNL1        0.1564
     11 C         140.4373  141.7573  166.1860 C.ar    1  UNL1        0.0525
     12 C         139.7266  140.4468  166.3520 C.ar    1  UNL1        0.0156
     13 C         139.3689  139.9561  167.7236 C.ar    1  UNL1        0.0135
     14 C         139.7219  140.7758  168.9291 C.ar    1  UNL1        0.0683
     15 CL        139.3642  140.2851  170.3008 Cl      1  UNL1       -0.0814
     16 C         140.4326  142.0863  168.7631 C.ar    1  UNL1        0.0694
     17 CL        140.7856  142.9060  169.9688 Cl      1  UNL1       -0.0813
     18 C         140.7903  142.5770  167.3916 C.ar    1  UNL1        0.0270
     19 C         141.5177  145.3995  158.7485 C.3     1  UNL1        0.1035
     20 N         139.1489  146.5281  155.7711 N.3     1  UNL1       -0.2685
     21 C         138.4785  145.2292  155.4343 C.3     1  UNL1        0.1046
     22 C         138.8213  143.9871  156.2022 C.3     1  UNL1        0.1594
     23 O         139.8343  144.0438  157.3069 O.3     1  UNL1       -0.3519
     24 C         140.5046  145.3427  157.6437 C.3     1  UNL1        0.1471
     25 C         140.1619  146.5848  156.8758 C.3     1  UNL1        0.1035
     26 C         139.8769  148.5110  154.2585 C.3     1  UNL1        0.0188
     27 C         138.8061  147.7702  155.0032 C.3     1  UNL1        0.0723
@<TRIPOS>BOND
     1    26    27    1
     2    27    20    1
     3    20    21    1
     4    21    22    1
     5    22    23    1
     6    23    24    1
     7    24    19    1
     8    19     1    1
     9     1     2    1
    10     2     3    1
    11     3     4    1
    12     4     5   am
    13     5     6    2
    14     5     7   am
    15     7    11    1
    16    11    12   ar
    17    12    13   ar
    18    13    14   ar
    19    14    15    1
    20    14    16   ar
    21    16    17    1
    22    16    18   ar
    23     4     8    1
    24     8     9    1
    25    24    25    1
    26    25    20    1
    27     9     1    1
    28    18    11   ar
    29     7    10    1
@<TRIPOS>MOLECULE
*****
 27 29 0 0 0
SMALL
GASTEIGER

@<TRIPOS>ATOM
      1 N         142.1791  137.9770  158.4627 N.3     1  UNL1       -0.2677
      2 C         142.8893  137.5424  159.7104 C.3     1  UNL1        0.0940
      3 C         142.3475  137.9284  161.0549 C.3     1  UNL1        0.1123
      4 N         141.0955  138.7489  161.1516 N.am    1  UNL1       -0.2611
      5 C         140.5538  139.1348  162.4960 C.2     1  UNL1        0.3078
      6 O         139.3018  139.9553  162.5928 O.2     1  UNL1       -0.2522
      7 N         141.2640  138.7002  163.7437 N.am    1  UNL1       -0.2681
      8 C         140.3853  139.1834  159.9039 C.3     1  UNL1        0.1123
      9 C         140.9271  138.7975  158.5595 C.3     1  UNL1        0.0940
     10 H         142.0857  138.1618  163.6803 H       1  UNL1        0.1564
     11 C         140.7222  139.0862  165.0882 C.ar    1  UNL1        0.0525
     12 C         141.5552  139.9114  166.0238 C.ar    1  UNL1        0.0156
     13 C         141.0134  140.2974  167.3682 C.ar    1  UNL1        0.0135
     14 C         139.6387  139.8581  167.7771 C.ar    1  UNL1        0.0683
     15 CL        139.0969  140.2441  169.1215 Cl      1  UNL1       -0.0814
     16 C         138.8058  139.0329  166.8415 C.ar    1  UNL1        0.0694
     17 CL        137.4310  138.5937  167.2505 Cl      1  UNL1       -0.0813
     18 C         139.3475  138.6470  165.4971 C.ar    1  UNL1        0.0270
     19 C         142.7209  137.5911  157.1183 C.3     1  UNL1        0.1035
     20 N         142.9616  133.6749  156.5217 N.3     1  UNL1       -0.2685
     21 C         141.9166  133.4848  155.4626 C.3     1  UNL1        0.1046
     22 C         141.1397  134.6634  154.9553 C.3     1  UNL1        0.1594
     23 O         141.4078  136.0321  155.5072 O.3     1  UNL1       -0.3519
     24 C         142.4527  136.2222  156.5663 C.3     1  UNL1        0.1471
     25 C         143.2296  135.0436  157.0736 C.3     1  UNL1        0.1035
     26 C         144.7029  131.7882  156.1244 C.3     1  UNL1        0.0188
     27 C         143.7385  132.4963  157.0290 C.3     1  UNL1        0.0723
@<TRIPOS>BOND
     1    26    27    1
     2    27    20    1
     3    20    21    1
     4    21    22    1
     5    22    23    1
     6    23    24    1
     7    24    19    1
     8    19     1    1
     9     1     2    1
    10     2     3    1
    11     3     4    1
    12     4     5   am
    13     5     6    2
    14     5     7   am
    15     7    11    1
    16    11    12   ar
    17    12    13   ar
    18    13    14   ar
    19    14    15    1
    20    14    16   ar
    21    16    17    1
    22    16    18   ar
    23     4     8    1
    24     8     9    1
    25    24    25    1
    26    25    20    1
    27     9     1    1
    28    18    11   ar
    29     7    10    1
@<TRIPOS>MOLECULE
*****
 27 29 0 0 0
SMALL
GASTEIGER

@<TRIPOS>ATOM
      1 N         141.0325  145.0548  159.9808 N.3     1  UNL1       -0.2677
      2 C         141.7165  143.8314  160.5151 C.3     1  UNL1        0.0940
      3 C         141.3918  143.3314  161.8916 C.3     1  UNL1        0.1123
      4 N         140.3831  144.0548  162.7337 N.am    1  UNL1       -0.2611
      5 C         140.0584  143.5548  164.1101 C.2     1  UNL1        0.3078
      6 O         139.0497  144.2782  164.9523 O.2     1  UNL1       -0.2522
      7 N         140.7424  142.3314  164.6444 N.am    1  UNL1       -0.2681
      8 C         139.6991  145.2782  162.1994 C.3     1  UNL1        0.1123
      9 C         140.0237  145.7782  160.8230 C.3     1  UNL1        0.0940
     10 H         141.4045  141.8567  164.0917 H       1  UNL1        0.1564
     11 C         140.4177  141.8315  166.0209 C.ar    1  UNL1        0.0525
     12 C         139.7510  140.4994  166.1971 C.ar    1  UNL1        0.0156
     13 C         139.4262  139.9994  167.5735 C.ar    1  UNL1        0.0135
     14 C         139.7682  140.8315  168.7737 C.ar    1  UNL1        0.0683
     15 CL        139.4435  140.3315  170.1502 Cl      1  UNL1       -0.0814
     16 C         140.4350  142.1635  168.5975 C.ar    1  UNL1        0.0694
     17 CL        140.7770  142.9956  169.7979 Cl      1  UNL1       -0.0813
     18 C         140.7597  142.6635  167.2212 C.ar    1  UNL1        0.0270
     19 C         141.3572  145.5548  158.6044 C.3     1  UNL1        0.1035
     20 N         138.6107  144.1099  156.1307 N.3     1  UNL1       -0.2685
     21 C         138.2630  145.3389  155.3442 C.3     1  UNL1        0.1046
     22 C         138.9466  146.6399  155.6444 C.3     1  UNL1        0.1594
     23 O         139.9780  146.7119  156.7311 O.3     1  UNL1       -0.3519
     24 C         140.3257  145.4829  157.5176 C.3     1  UNL1        0.1471
     25 C         139.6421  144.1819  157.2174 C.3     1  UNL1        0.1035
     26 C         137.3237  142.0045  156.9434 C.3     1  UNL1        0.0188
     27 C         137.9271  142.8090  155.8305 C.3     1  UNL1        0.0723
@<TRIPOS>BOND
     1    26    27    1
     2    27    20    1
     3    20    21    1
     4    21    22    1
     5    22    23    1
     6    23    24    1
     7    24    19    1
     8    19     1    1
     9     1     2    1
    10     2     3    1
    11     3     4    1
    12     4     5   am
    13     5     6    2
    14     5     7   am
    15     7    11    1
    16    11    12   ar
    17    12    13   ar
    18    13    14   ar
    19    14    15    1
    20    14    16   ar
    21    16    17    1
    22    16    18   ar
    23     4     8    1
    24     8     9    1
    25    24    25    1
    26    25    20    1
    27     9     1    1
    28    18    11   ar
    29     7    10    1
@<TRIPOS>MOLECULE
*****
 27 29 0 0 0
SMALL
GASTEIGER

@<TRIPOS>ATOM
      1 N         142.5174  141.5615  158.9379 N.3     1  UNL1       -0.2677
      2 C         141.6460  140.3665  159.1881 C.3     1  UNL1        0.0940
      3 C         141.9041  139.0834  158.4552 C.3     1  UNL1        0.1123
      4 N         143.0336  138.9953  157.4722 N.am    1  UNL1       -0.2611
      5 C         143.2917  137.7122  156.7394 C.2     1  UNL1        0.3078
      6 O         144.4213  137.6241  155.7563 O.2     1  UNL1       -0.2522
      7 N         142.4202  136.5173  156.9896 N.am    1  UNL1       -0.2681
      8 C         143.9051  140.1903  157.2220 C.3     1  UNL1        0.1123
      9 C         143.6470  141.4734  157.9549 C.3     1  UNL1        0.0940
     10 H         141.6789  136.5751  157.6348 H       1  UNL1        0.1564
     11 C         142.6784  135.2341  156.2567 C.ar    1  UNL1        0.0525
     12 C         141.9052  134.9126  155.0122 C.ar    1  UNL1        0.0156
     13 C         142.1632  133.6296  154.2793 C.ar    1  UNL1        0.0135
     14 C         143.1945  132.6681  154.7910 C.ar    1  UNL1        0.0683
     15 CL        143.4527  131.3849  154.0581 Cl      1  UNL1       -0.0814
     16 C         143.9678  132.9895  156.0355 C.ar    1  UNL1        0.0694
     17 CL        144.9991  132.0279  156.5471 Cl      1  UNL1       -0.0813
     18 C         143.7097  134.2726  156.7683 C.ar    1  UNL1        0.0270
     19 C         142.2594  142.8446  159.6707 C.3     1  UNL1        0.1035
     20 N         144.6421  142.4072  162.8142 N.3     1  UNL1       -0.2685
     21 C         144.4365  143.7197  163.5106 C.3     1  UNL1        0.1046
     22 C         143.5052  144.7405  162.9270 C.3     1  UNL1        0.1594
     23 O         142.7794  144.4488  161.6471 O.3     1  UNL1       -0.3519
     24 C         142.9851  143.1363  160.9507 C.3     1  UNL1        0.1471
     25 C         143.9164  142.1155  161.5343 C.3     1  UNL1        0.1035
     26 C         145.0209  140.1685  164.0770 C.3     1  UNL1        0.0188
     27 C         145.5735  141.3864  163.3977 C.3     1  UNL1        0.0723
@<TRIPOS>BOND
     1    26    27    1
     2    27    20    1
     3    20    21    1
     4    21    22    1
     5    22    23    1
     6    23    24    1
     7    24    19    1
     8    19     1    1
     9     1     2    1
    10     2     3    1
    11     3     4    1
    12     4     5   am
    13     5     6    2
    14     5     7   am
    15     7    11    1
    16    11    12   ar
    17    12    13   ar
    18    13    14   ar
    19    14    15    1
    20    14    16   ar
    21    16    17    1
    22    16    18   ar
    23     4     8    1
    24     8     9    1
    25    24    25    1
    26    25    20    1
    27     9     1    1
    28    18    11   ar
    29     7    10    1
@<TRIPOS>MOLECULE
*****
 27 29 0 0 0
SMALL
GASTEIGER

@<TRIPOS>ATOM
      1 N         139.4762  139.4429  159.8218 N.3     1  UNL1       -0.2677
      2 C         139.9541  140.6406  160.5879 C.3     1  UNL1        0.0940
      3 C         140.1974  140.5383  162.0646 C.3     1  UNL1        0.1123
      4 N         139.9628  139.2382  162.7750 N.am    1  UNL1       -0.2611
      5 C         140.2061  139.1359  164.2516 C.2     1  UNL1        0.3078
      6 O         139.9715  137.8358  164.9621 O.2     1  UNL1       -0.2522
      7 N         140.6841  140.3337  165.0177 N.am    1  UNL1       -0.2681
      8 C         139.4849  138.0405  162.0089 C.3     1  UNL1        0.1123
      9 C         139.2415  138.1428  160.5323 C.3     1  UNL1        0.0940
     10 H         140.8380  141.1870  164.5514 H       1  UNL1        0.1564
     11 C         140.9274  140.2313  166.4943 C.ar    1  UNL1        0.0525
     12 C         142.3091  139.9567  167.0095 C.ar    1  UNL1        0.0156
     13 C         142.5525  139.8543  168.4860 C.ar    1  UNL1        0.0135
     14 C         141.4141  140.0266  169.4474 C.ar    1  UNL1        0.0683
     15 CL        141.6574  139.9242  170.9241 Cl      1  UNL1       -0.0814
     16 C         140.0324  140.3012  168.9323 C.ar    1  UNL1        0.0694
     17 CL        138.8940  140.4735  169.8938 Cl      1  UNL1       -0.0813
     18 C         139.7890  140.4036  167.4557 C.ar    1  UNL1        0.0270
     19 C         139.2328  139.5452  158.3452 C.3     1  UNL1        0.1035
     20 N         141.6961  136.9342  156.6525 N.3     1  UNL1       -0.2685
     21 C         140.8148  136.3681  155.5788 C.3     1  UNL1        0.1046
     22 C         139.4063  136.8610  155.4272 C.3     1  UNL1        0.1594
     23 O         138.8789  137.9200  156.3493 O.3     1  UNL1       -0.3519
     24 C         139.7602  138.4861  157.4230 C.3     1  UNL1        0.1471
     25 C         141.1687  137.9932  157.5746 C.3     1  UNL1        0.1035
     26 C         143.8044  135.8013  155.6419 C.3     1  UNL1        0.0188
     27 C         143.1046  136.4413  156.8041 C.3     1  UNL1        0.0723
@<TRIPOS>BOND
     1    26    27    1
     2    27    20    1
     3    20    21    1
     4    21    22    1
     5    22    23    1
     6    23    24    1
     7    24    19    1
     8    19     1    1
     9     1     2    1
    10     2     3    1
    11     3     4    1
    12     4     5   am
    13     5     6    2
    14     5     7   am
    15     7    11    1
    16    11    12   ar
    17    12    13   ar
    18    13    14   ar
    19    14    15    1
    20    14    16   ar
    21    16    17    1
    22    16    18   ar
    23     4     8    1
    24     8     9    1
    25    24    25    1
    26    25    20    1
    27     9     1    1
    28    18    11   ar
    29     7    10    1
@<TRIPOS>MOLECULE
*****
 27 29 0 0 0
SMALL
GASTEIGER

@<TRIPOS>ATOM
      1 N         141.7314  136.8060  156.3172 N.3     1  UNL1       -0.2677
      2 C         140.2909  137.1781  156.5080 C.3     1  UNL1        0.0940
      3 C         139.8866  138.0426  157.6653 C.3     1  UNL1        0.1123
      4 N         140.9228  138.5349  158.6317 N.am    1  UNL1       -0.2611
      5 C         140.5184  139.3993  159.7889 C.2     1  UNL1        0.3078
      6 O         141.5546  139.8917  160.7554 O.2     1  UNL1       -0.2522
      7 N         139.0779  139.7715  159.9797 N.am    1  UNL1       -0.2681
      8 C         142.3633  138.1628  158.4408 C.3     1  UNL1        0.1123
      9 C         142.7676  137.2983  157.2836 C.3     1  UNL1        0.0940
     10 H         138.3978  139.4483  159.3455 H       1  UNL1        0.1564
     11 C         138.6736  140.6359  161.1370 C.ar    1  UNL1        0.0525
     12 C         138.3869  142.0924  160.9211 C.ar    1  UNL1        0.0156
     13 C         137.9826  142.9569  162.0783 C.ar    1  UNL1        0.0135
     14 C         137.8649  142.3649  163.4514 C.ar    1  UNL1        0.0683
     15 CL        137.4606  143.2294  164.6087 Cl      1  UNL1       -0.0814
     16 C         138.1516  140.9085  163.6674 C.ar    1  UNL1        0.0694
     17 CL        138.0338  140.3165  165.0407 Cl      1  UNL1       -0.0813
     18 C         138.5559  140.0440  162.5102 C.ar    1  UNL1        0.0270
     19 C         142.1358  135.9415  155.1599 C.3     1  UNL1        0.1035
     20 N         143.7468  132.4235  156.0421 N.3     1  UNL1       -0.2685
     21 C         142.6068  131.5020  155.7244 C.3     1  UNL1        0.1046
     22 C         141.3097  132.0603  155.2185 C.3     1  UNL1        0.1594
     23 O         141.1527  133.5401  155.0304 O.3     1  UNL1       -0.3519
     24 C         142.2928  134.4616  155.3481 C.3     1  UNL1        0.1471
     25 C         143.5898  133.9033  155.8540 C.3     1  UNL1        0.1035
     26 C         145.4463  132.0798  157.9770 C.3     1  UNL1        0.0188
     27 C         145.0439  131.8652  156.5480 C.3     1  UNL1        0.0723
@<TRIPOS>BOND
     1    26    27    1
     2    27    20    1
     3    20    21    1
     4    21    22    1
     5    22    23    1
     6    23    24    1
     7    24    19    1
     8    19     1    1
     9     1     2    1
    10     2     3    1
    11     3     4    1
    12     4     5   am
    13     5     6    2
    14     5     7   am
    15     7    11    1
    16    11    12   ar
    17    12    13   ar
    18    13    14   ar
    19    14    15    1
    20    14    16   ar
    21    16    17    1
    22    16    18   ar
    23     4     8    1
    24     8     9    1
    25    24    25    1
    26    25    20    1
    27     9     1    1
    28    18    11   ar
    29     7    10    1
@<TRIPOS>MOLECULE
*****
 27 29 0 0 0
SMALL
GASTEIGER

@<TRIPOS>ATOM
      1 N         142.7422  139.1272  159.7978 N.3     1  UNL1       -0.2677
      2 C         141.9450  140.2238  160.4397 C.3     1  UNL1        0.0940
      3 C         141.6906  140.1995  161.9178 C.3     1  UNL1        0.1123
      4 N         142.2333  139.0786  162.7539 N.am    1  UNL1       -0.2611
      5 C         141.9788  139.0544  164.2319 C.2     1  UNL1        0.3078
      6 O         142.5215  137.9335  165.0682 O.2     1  UNL1       -0.2522
      7 N         141.1816  140.1510  164.8738 N.am    1  UNL1       -0.2681
      8 C         143.0304  137.9821  162.1120 C.3     1  UNL1        0.1123
      9 C         143.2849  138.0063  160.6340 C.3     1  UNL1        0.0940
     10 H         140.8254  140.8866  164.3250 H       1  UNL1        0.1564
     11 C         140.9271  140.1267  166.3519 C.ar    1  UNL1        0.0525
     12 C         139.5351  139.9168  166.8699 C.ar    1  UNL1        0.0156
     13 C         139.2806  139.8925  168.3480 C.ar    1  UNL1        0.0135
     14 C         140.4181  140.0780  169.3080 C.ar    1  UNL1        0.0683
     15 CL        140.1636  140.0537  170.7861 Cl      1  UNL1       -0.0814
     16 C         141.8101  140.2879  168.7900 C.ar    1  UNL1        0.0694
     17 CL        142.9476  140.4735  169.7501 Cl      1  UNL1       -0.0813
     18 C         142.0646  140.3122  167.3119 C.ar    1  UNL1        0.0270
     19 C         142.9967  139.1514  158.3198 C.3     1  UNL1        0.1035
     20 N         142.0649  135.8076  156.3961 N.3     1  UNL1       -0.2685
     21 C         140.8604  136.2528  155.6209 C.3     1  UNL1        0.1046
     22 C         140.3679  137.6642  155.7454 C.3     1  UNL1        0.1594
     23 O         141.0800  138.6304  156.6450 O.3     1  UNL1       -0.3519
     24 C         142.2845  138.1852  157.4201 C.3     1  UNL1        0.1471
     25 C         142.7770  136.7738  157.2957 C.3     1  UNL1        0.1035
     26 C         143.7010  133.9234  157.1192 C.3     1  UNL1        0.0188
     27 C         142.5573  134.3962  156.2716 C.3     1  UNL1        0.0723
@<TRIPOS>BOND
     1    26    27    1
     2    27    20    1
     3    20    21    1
     4    21    22    1
     5    22    23    1
     6    23    24    1
     7    24    19    1
     8    19     1    1
     9     1     2    1
    10     2     3    1
    11     3     4    1
    12     4     5   am
    13     5     6    2
    14     5     7   am
    15     7    11    1
    16    11    12   ar
    17    12    13   ar
    18    13    14   ar
    19    14    15    1
    20    14    16   ar
    21    16    17    1
    22    16    18   ar
    23     4     8    1
    24     8     9    1
    25    24    25    1
    26    25    20    1
    27     9     1    1
    28    18    11   ar
    29     7    10    1
@<TRIPOS>MOLECULE
*****
 27 29 0 0 0
SMALL
GASTEIGER

@<TRIPOS>ATOM
      1 N         139.9893  143.5063  164.4121 N.3     1  UNL1       -0.2677
      2 C         140.9137  144.5462  163.8518 C.3     1  UNL1        0.0940
      3 C         140.9335  144.8152  162.3762 C.3     1  UNL1        0.1123
      4 N         140.0289  144.0444  161.4610 N.am    1  UNL1       -0.2611
      5 C         140.0488  144.3135  159.9855 C.2     1  UNL1        0.3078
      6 O         139.1442  143.5426  159.0703 O.2     1  UNL1       -0.2522
      7 N         140.9732  145.3534  159.4252 N.am    1  UNL1       -0.2681
      8 C         139.1045  143.0044  162.0214 C.3     1  UNL1        0.1123
      9 C         139.0847  142.7354  163.4969 C.3     1  UNL1        0.0940
     10 H         141.5669  145.8593  160.0258 H       1  UNL1        0.1564
     11 C         140.9930  145.6224  157.9496 C.ar    1  UNL1        0.0525
     12 C         142.0852  145.0477  157.0970 C.ar    1  UNL1        0.0156
     13 C         142.1050  145.3167  155.6215 C.ar    1  UNL1        0.0135
     14 C         141.0328  146.1605  154.9985 C.ar    1  UNL1        0.0683
     15 CL        141.0526  146.4295  153.5229 Cl      1  UNL1       -0.0814
     16 C         139.9406  146.7352  155.8511 C.ar    1  UNL1        0.0694
     17 CL        138.8683  147.5791  155.2280 Cl      1  UNL1       -0.0813
     18 C         139.9207  146.4662  157.3266 C.ar    1  UNL1        0.0270
     19 C         139.9694  143.2372  165.8876 C.3     1  UNL1        0.1035
     20 N         142.2788  141.1157  168.3200 N.3     1  UNL1       -0.2685
     21 C         142.3446  139.8114  167.5823 C.3     1  UNL1        0.1046
     22 C         141.6188  139.6489  166.2797 C.3     1  UNL1        0.1594
     23 O         140.8270  140.7908  165.7148 O.3     1  UNL1       -0.3519
     24 C         140.7612  142.0952  166.4525 C.3     1  UNL1        0.1471
     25 C         141.4871  142.2576  167.7551 C.3     1  UNL1        0.1035
     26 C         143.9691  142.4120  169.8074 C.3     1  UNL1        0.0188
     27 C         143.0047  141.2782  169.6225 C.3     1  UNL1        0.0723
@<TRIPOS>BOND
     1    26    27    1
     2    27    20    1
     3    20    21    1
     4    21    22    1
     5    22    23    1
     6    23    24    1
     7    24    19    1
     8    19     1    1
     9     1     2    1
    10     2     3    1
    11     3     4    1
    12     4     5   am
    13     5     6    2
    14     5     7   am
    15     7    11    1
    16    11    12   ar
    17    12    13   ar
    18    13    14   ar
    19    14    15    1
    20    14    16   ar
    21    16    17    1
    22    16    18   ar
    23     4     8    1
    24     8     9    1
    25    24    25    1
    26    25    20    1
    27     9     1    1
    28    18    11   ar
    29     7    10    1
@<TRIPOS>MOLECULE
*****
 27 29 0 0 0
SMALL
GASTEIGER

@<TRIPOS>ATOM
      1 N         140.2881  140.1603  158.2952 N.3     1  UNL1       -0.2677
      2 C         139.4344  139.0844  157.6920 C.3     1  UNL1        0.0940
      3 C         140.0708  137.8438  157.1390 C.3     1  UNL1        0.1123
      4 N         141.5609  137.6790  157.1892 N.am    1  UNL1       -0.2611
      5 C         142.1972  136.4384  156.6362 C.2     1  UNL1        0.3078
      6 O         143.6874  136.2735  156.6863 O.2     1  UNL1       -0.2522
      7 N         141.3436  135.3625  156.0330 N.am    1  UNL1       -0.2681
      8 C         142.4146  138.7548  157.7923 C.3     1  UNL1        0.1123
      9 C         141.7782  139.9954  158.3453 C.3     1  UNL1        0.0940
     10 H         140.3656  135.4707  156.0001 H       1  UNL1        0.1564
     11 C         141.9800  134.1219  155.4800 C.ar    1  UNL1        0.0525
     12 C         142.0082  133.8901  153.9982 C.ar    1  UNL1        0.0156
     13 C         142.6446  132.6495  153.4452 C.ar    1  UNL1        0.0135
     14 C         143.2528  131.6407  154.3739 C.ar    1  UNL1        0.0683
     15 CL        143.8892  130.4000  153.8208 Cl      1  UNL1       -0.0814
     16 C         143.2245  131.8725  155.8556 C.ar    1  UNL1        0.0694
     17 CL        143.8328  130.8637  156.7843 Cl      1  UNL1       -0.0813
     18 C         142.5882  133.1131  156.4086 C.ar    1  UNL1        0.0270
     19 C         139.6517  141.4009  158.8482 C.3     1  UNL1        0.1035
     20 N         137.9857  142.5773  162.2527 N.3     1  UNL1       -0.2685
     21 C         137.5248  141.2638  162.8114 C.3     1  UNL1        0.1046
     22 C         137.7728  139.9960  162.0491 C.3     1  UNL1        0.1594
     23 O         138.4818  140.0417  160.7281 O.3     1  UNL1       -0.3519
     24 C         138.9427  141.3551  160.1693 C.3     1  UNL1        0.1471
     25 C         138.6947  142.6230  160.9317 C.3     1  UNL1        0.1035
     26 C         137.9486  143.8810  164.4997 C.3     1  UNL1        0.0188
     27 C         137.7377  143.8451  163.0150 C.3     1  UNL1        0.0723
@<TRIPOS>BOND
     1    26    27    1
     2    27    20    1
     3    20    21    1
     4    21    22    1
     5    22    23    1
     6    23    24    1
     7    24    19    1
     8    19     1    1
     9     1     2    1
    10     2     3    1
    11     3     4    1
    12     4     5   am
    13     5     6    2
    14     5     7   am
    15     7    11    1
    16    11    12   ar
    17    12    13   ar
    18    13    14   ar
    19    14    15    1
    20    14    16   ar
    21    16    17    1
    22    16    18   ar
    23     4     8    1
    24     8     9    1
    25    24    25    1
    26    25    20    1
    27     9     1    1
    28    18    11   ar
    29     7    10    1
