@<TRIPOS>MOLECULE
*****
 33 36 0 0 0
SMALL
GASTEIGER

@<TRIPOS>ATOM
      1 C         139.2654  142.5794  160.5169 C.ar    1  UNL1        0.1679
      2 C         140.4170  141.6194  160.4732 C.ar    1  UNL1        0.0733
      3 C         140.5331  140.6384  159.3444 C.ar    1  UNL1        0.1390
      4 N         139.4976  140.6175  158.2594 N.ar    1  UNL1       -0.2088
      5 C         138.3460  141.5776  158.3031 C.ar    1  UNL1        0.2001
      6 N         138.2299  142.5585  159.4319 N.ar    1  UNL1       -0.2047
      7 C         138.1067  144.7396  165.1937 C.3     1  UNL1        0.0540
      8 C         138.6167  144.5534  163.7954 C.ar    1  UNL1        0.0805
      9 C         139.3244  145.5869  162.9701 C.ar    1  UNL1        0.0312
     10 C         139.6536  144.9732  161.6415 C.ar    1  UNL1        0.0637
     11 C         140.3625  145.6529  160.5078 C.3     1  UNL1        0.0522
     12 N         139.1493  143.5605  161.6458 N.ar    1  UNL1       -0.2164
     13 N         138.5084  143.3010  162.9769 N.ar    1  UNL1       -0.1684
     14 C         137.3105  141.5567  157.2181 C.ar    1  UNL1        0.1805
     15 C         137.1186  142.6046  156.1622 C.ar    1  UNL1        0.0434
     16 C         135.9745  142.1798  155.2900 C.ar    1  UNL1        0.0362
     17 C         135.4593  140.8693  155.8069 C.ar    1  UNL1        0.1234
     18 C         134.3188  140.0821  155.2330 C.3     1  UNL1        0.0725
     19 O         136.2850  140.4842  156.9985 O.2     1  UNL1       -0.4546
     20 N         141.6848  139.6782  159.3006 N.am    1  UNL1       -0.2692
     21 C         141.7429  138.5322  160.2666 C.2     1  UNL1        0.2286
     22 O         140.6494  138.3463  161.2764 O.2     1  UNL1       -0.2747
     23 H         142.4025  139.8003  158.6378 H       1  UNL1        0.1563
     24 C         142.8945  137.5721  160.2228 C.3     1  UNL1        0.1027
     25 C         144.0213  137.7071  161.2037 C.3     1  UNL1        0.0818
     26 N         144.0122  138.8216  162.2077 N.3     1  UNL1       -0.2711
     27 C         143.6404  138.7007  163.6559 C.3     1  UNL1        0.0736
     28 C         143.7717  140.0570  164.2829 C.3     1  UNL1        0.0347
     29 C         144.2246  141.0162  163.2223 C.3     1  UNL1        0.0749
     30 C         144.3732  140.2526  161.9397 C.3     1  UNL1        0.0883
     31 N         144.4834  142.4816  163.4111 N.3     1  UNL1       -0.2702
     32 C         144.5566  143.3898  162.2196 C.3     1  UNL1        0.0897
     33 C         144.6690  143.0387  164.7914 C.3     1  UNL1        0.0897
@<TRIPOS>BOND
     1     7     8    1
     2     8     9   ar
     3     9    10   ar
     4    10    11    1
     5    10    12   ar
     6    12     1    1
     7     1     2   ar
     8     2     3   ar
     9     3    20    1
    10    20    21   am
    11    21    22    2
    12    21    24    1
    13    24    25    1
    14    25    26    1
    15    26    27    1
    16    27    28    1
    17    28    29    1
    18    29    31    1
    19    31    32    1
    20    31    33    1
    21    29    30    1
    22     3     4   ar
    23     4     5   ar
    24     5    14    1
    25    14    15   ar
    26    15    16   ar
    27    16    17   ar
    28    17    18    1
    29    17    19   ar
    30     5     6   ar
    31    12    13   ar
    32    13     8   ar
    33     6     1   ar
    34    30    26    1
    35    19    14   ar
    36    20    23    1
@<TRIPOS>MOLECULE
*****
 33 36 0 0 0
SMALL
GASTEIGER

@<TRIPOS>ATOM
      1 C         140.9965  142.1322  158.4798 C.ar    1  UNL1        0.1679
      2 C         140.7218  142.8230  159.7825 C.ar    1  UNL1        0.0733
      3 C         139.3179  143.2043  160.1478 C.ar    1  UNL1        0.1390
      4 N         138.1886  142.8948  159.2103 N.ar    1  UNL1       -0.2088
      5 C         138.4632  142.2040  157.9075 C.ar    1  UNL1        0.2001
      6 N         139.8672  141.8227  157.5423 N.ar    1  UNL1       -0.2047
      7 C         146.0937  142.4334  157.1346 C.3     1  UNL1        0.0540
      8 C         144.7434  141.8893  157.4961 C.ar    1  UNL1        0.0805
      9 C         144.3786  140.4386  157.6084 C.ar    1  UNL1        0.0312
     10 C         142.9306  140.3531  157.9905 C.ar    1  UNL1        0.0637
     11 C         142.1498  139.0913  158.2102 C.3     1  UNL1        0.0522
     12 N         142.4005  141.7508  158.1144 N.ar    1  UNL1       -0.2164
     13 N         143.5209  142.7002  157.8089 N.ar    1  UNL1       -0.1684
     14 C         137.3340  141.8945  156.9700 C.ar    1  UNL1        0.1805
     15 C         136.8596  142.7641  155.8436 C.ar    1  UNL1        0.0434
     16 C         135.7132  142.0681  155.1717 C.ar    1  UNL1        0.0362
     17 C         135.4791  140.7683  155.8829 C.ar    1  UNL1        0.1234
     18 C         134.4278  139.7539  155.5425 C.3     1  UNL1        0.0725
     19 O         136.4807  140.6610  156.9943 O.2     1  UNL1       -0.4546
     20 N         139.0431  143.8952  161.4506 N.am    1  UNL1       -0.2692
     21 C         138.1253  143.2641  162.4553 C.2     1  UNL1        0.2286
     22 O         137.4822  141.9421  162.1571 O.2     1  UNL1       -0.2747
     23 H         139.4652  144.7628  161.6463 H       1  UNL1        0.1563
     24 C         137.8506  143.9549  163.7580 C.3     1  UNL1        0.1027
     25 C         138.8801  144.8684  164.3543 C.3     1  UNL1        0.0818
     26 N         140.3344  144.5076  164.2829 N.3     1  UNL1       -0.2711
     27 C         141.4100  145.3098  163.6125 C.3     1  UNL1        0.0736
     28 C         142.7086  144.5792  163.7847 C.3     1  UNL1        0.0347
     29 C         142.4356  143.3254  164.5616 C.3     1  UNL1        0.0749
     30 C         140.9682  143.2811  164.8695 C.3     1  UNL1        0.0883
     31 N         143.4516  142.2965  164.9605 N.3     1  UNL1       -0.2702
     32 C         143.0980  141.2456  165.9707 C.3     1  UNL1        0.0897
     33 C         144.8213  142.3185  164.3491 C.3     1  UNL1        0.0897
@<TRIPOS>BOND
     1     7     8    1
     2     8     9   ar
     3     9    10   ar
     4    10    11    1
     5    10    12   ar
     6    12     1    1
     7     1     2   ar
     8     2     3   ar
     9     3    20    1
    10    20    21   am
    11    21    22    2
    12    21    24    1
    13    24    25    1
    14    25    26    1
    15    26    27    1
    16    27    28    1
    17    28    29    1
    18    29    31    1
    19    31    32    1
    20    31    33    1
    21    29    30    1
    22     3     4   ar
    23     4     5   ar
    24     5    14    1
    25    14    15   ar
    26    15    16   ar
    27    16    17   ar
    28    17    18    1
    29    17    19   ar
    30     5     6   ar
    31    12    13   ar
    32    13     8   ar
    33     6     1   ar
    34    30    26    1
    35    19    14   ar
    36    20    23    1
@<TRIPOS>MOLECULE
*****
 33 36 0 0 0
SMALL
GASTEIGER

@<TRIPOS>ATOM
      1 C         140.2965  143.9242  160.5226 C.ar    1  UNL1        0.1679
      2 C         140.8983  142.6077  160.1293 C.ar    1  UNL1        0.0733
      3 C         141.1859  142.3158  158.6864 C.ar    1  UNL1        0.1390
      4 N         140.8717  143.3403  157.6368 N.ar    1  UNL1       -0.2088
      5 C         140.2700  144.6568  158.0301 C.ar    1  UNL1        0.2001
      6 N         139.9823  144.9487  159.4730 N.ar    1  UNL1       -0.2047
      7 C         137.7528  144.5846  165.1024 C.3     1  UNL1        0.0540
      8 C         138.8397  144.5198  164.0706 C.ar    1  UNL1        0.0805
      9 C         140.2929  144.8113  164.3013 C.ar    1  UNL1        0.0312
     10 C         141.0155  144.6237  163.0003 C.ar    1  UNL1        0.0637
     11 C         142.4864  144.8107  162.7738 C.3     1  UNL1        0.0522
     12 N         140.0088  144.2162  161.9655 N.ar    1  UNL1       -0.2164
     13 N         138.6641  144.1520  162.6271 N.ar    1  UNL1       -0.1684
     14 C         139.9558  145.6813  156.9805 C.ar    1  UNL1        0.1805
     15 C         140.1630  145.5225  155.5034 C.ar    1  UNL1        0.0434
     16 C         139.7146  146.7876  154.8337 C.ar    1  UNL1        0.0362
     17 C         139.2301  147.7283  155.8969 C.ar    1  UNL1        0.1234
     18 C         138.6912  149.1101  155.6728 C.3     1  UNL1        0.0725
     19 O         139.3792  147.0445  157.2237 O.2     1  UNL1       -0.4546
     20 N         141.7877  140.9993  158.2930 N.am    1  UNL1       -0.2692
     21 C         140.9167  139.7847  158.1653 C.2     1  UNL1        0.2286
     22 O         139.4439  139.8868  158.4310 O.2     1  UNL1       -0.2747
     23 H         142.7543  140.9323  158.1186 H       1  UNL1        0.1563
     24 C         141.5184  138.4683  157.7720 C.3     1  UNL1        0.1027
     25 C         142.7154  137.9413  158.5065 C.3     1  UNL1        0.0818
     26 N         142.9371  138.3124  159.9429 N.3     1  UNL1       -0.2711
     27 C         142.1825  137.7699  161.1203 C.3     1  UNL1        0.0736
     28 C         142.7314  138.4134  162.3591 C.3     1  UNL1        0.0347
     29 C         143.8252  139.3537  161.9474 C.3     1  UNL1        0.0749
     30 C         143.9523  139.2913  160.4540 C.3     1  UNL1        0.0883
     31 N         144.6475  140.2066  162.8673 N.3     1  UNL1       -0.2702
     32 C         145.0741  141.5787  162.4368 C.3     1  UNL1        0.0897
     33 C         145.0433  139.6874  164.2178 C.3     1  UNL1        0.0897
@<TRIPOS>BOND
     1     7     8    1
     2     8     9   ar
     3     9    10   ar
     4    10    11    1
     5    10    12   ar
     6    12     1    1
     7     1     2   ar
     8     2     3   ar
     9     3    20    1
    10    20    21   am
    11    21    22    2
    12    21    24    1
    13    24    25    1
    14    25    26    1
    15    26    27    1
    16    27    28    1
    17    28    29    1
    18    29    31    1
    19    31    32    1
    20    31    33    1
    21    29    30    1
    22     3     4   ar
    23     4     5   ar
    24     5    14    1
    25    14    15   ar
    26    15    16   ar
    27    16    17   ar
    28    17    18    1
    29    17    19   ar
    30     5     6   ar
    31    12    13   ar
    32    13     8   ar
    33     6     1   ar
    34    30    26    1
    35    19    14   ar
    36    20    23    1
@<TRIPOS>MOLECULE
*****
 33 36 0 0 0
SMALL
GASTEIGER

@<TRIPOS>ATOM
      1 C         141.2932  139.0440  159.0630 C.ar    1  UNL1        0.1679
      2 C         141.0589  138.4919  160.4379 C.ar    1  UNL1        0.0733
      3 C         140.7038  139.4144  161.5661 C.ar    1  UNL1        0.1390
      4 N         140.5832  140.8890  161.3195 N.ar    1  UNL1       -0.2088
      5 C         140.8176  141.4412  159.9447 C.ar    1  UNL1        0.2001
      6 N         141.1726  140.5187  158.8164 N.ar    1  UNL1       -0.2047
      7 C         143.9056  135.6197  156.0084 C.3     1  UNL1        0.0540
      8 C         142.8490  136.5475  156.5307 C.ar    1  UNL1        0.0805
      9 C         141.5400  136.8564  155.8663 C.ar    1  UNL1        0.0312
     10 C         140.7980  137.8291  156.7341 C.ar    1  UNL1        0.0637
     11 C         139.4434  138.4079  156.4509 C.3     1  UNL1        0.0522
     12 N         141.6483  138.1215  157.9347 N.ar    1  UNL1       -0.2164
     13 N         142.9158  137.3294  157.8090 N.ar    1  UNL1       -0.1684
     14 C         140.6969  142.9158  159.6981 C.ar    1  UNL1        0.1805
     15 C         140.7239  143.9899  160.7448 C.ar    1  UNL1        0.0434
     16 C         140.5718  145.3133  160.0551 C.ar    1  UNL1        0.0362
     17 C         140.4508  145.0570  158.5821 C.ar    1  UNL1        0.1234
     18 C         140.2820  146.0994  157.5168 C.3     1  UNL1        0.0725
     19 O         140.5281  143.5754  158.3615 O.2     1  UNL1       -0.4546
     20 N         140.4695  138.8622  162.9410 N.am    1  UNL1       -0.2692
     21 C         139.2062  138.1118  163.2425 C.2     1  UNL1        0.2286
     22 O         138.1772  137.9135  162.1691 O.2     1  UNL1       -0.2747
     23 H         141.1448  138.9924  163.6454 H       1  UNL1        0.1563
     24 C         138.9717  137.5597  164.6173 C.3     1  UNL1        0.1027
     25 C         138.5601  138.4742  165.7327 C.3     1  UNL1        0.0818
     26 N         138.8940  139.9351  165.6667 N.3     1  UNL1       -0.2711
     27 C         140.0037  140.6203  166.4078 C.3     1  UNL1        0.0736
     28 C         139.9724  142.0759  166.0471 C.3     1  UNL1        0.0347
     29 C         138.8434  142.2905  165.0830 C.3     1  UNL1        0.0749
     30 C         138.1769  140.9673  164.8479 C.3     1  UNL1        0.0883
     31 N         138.4499  143.5984  164.4630 N.3     1  UNL1       -0.2702
     32 C         138.7256  144.8838  165.1852 C.3     1  UNL1        0.0897
     33 C         137.7807  143.6209  163.1207 C.3     1  UNL1        0.0897
@<TRIPOS>BOND
     1     7     8    1
     2     8     9   ar
     3     9    10   ar
     4    10    11    1
     5    10    12   ar
     6    12     1    1
     7     1     2   ar
     8     2     3   ar
     9     3    20    1
    10    20    21   am
    11    21    22    2
    12    21    24    1
    13    24    25    1
    14    25    26    1
    15    26    27    1
    16    27    28    1
    17    28    29    1
    18    29    31    1
    19    31    32    1
    20    31    33    1
    21    29    30    1
    22     3     4   ar
    23     4     5   ar
    24     5    14    1
    25    14    15   ar
    26    15    16   ar
    27    16    17   ar
    28    17    18    1
    29    17    19   ar
    30     5     6   ar
    31    12    13   ar
    32    13     8   ar
    33     6     1   ar
    34    30    26    1
    35    19    14   ar
    36    20    23    1
@<TRIPOS>MOLECULE
*****
 33 36 0 0 0
SMALL
GASTEIGER

@<TRIPOS>ATOM
      1 C         142.4101  140.1478  158.7125 C.ar    1  UNL1        0.1679
      2 C         142.4489  139.7526  160.1590 C.ar    1  UNL1        0.0733
      3 C         142.6434  138.3146  160.5386 C.ar    1  UNL1        0.1390
      4 N         142.7992  137.2717  159.4718 N.ar    1  UNL1       -0.2088
      5 C         142.7604  137.6669  158.0253 C.ar    1  UNL1        0.2001
      6 N         142.5658  139.1049  157.6457 N.ar    1  UNL1       -0.2047
      7 C         140.1462  144.7246  157.3674 C.3     1  UNL1        0.0540
      8 C         141.1750  143.6896  157.7146 C.ar    1  UNL1        0.0805
      9 C         142.6575  143.9081  157.7826 C.ar    1  UNL1        0.0312
     10 C         143.3005  142.6080  158.1647 C.ar    1  UNL1        0.0637
     11 C         144.7705  142.3714  158.3468 C.3     1  UNL1        0.0522
     12 N         142.2155  141.5859  158.3328 N.ar    1  UNL1       -0.2164
     13 N         140.9019  142.2544  158.0546 N.ar    1  UNL1       -0.1684
     14 C         142.9161  136.6240  156.9585 C.ar    1  UNL1        0.1805
     15 C         142.7767  136.8459  155.4815 C.ar    1  UNL1        0.0434
     16 C         143.0130  135.5352  154.7915 C.ar    1  UNL1        0.0362
     17 C         143.2986  134.5032  155.8420 C.ar    1  UNL1        0.1234
     18 C         143.5924  133.0529  155.5963 C.3     1  UNL1        0.0725
     19 O         143.2387  135.1761  157.1812 O.2     1  UNL1       -0.4546
     20 N         142.6822  137.9194  161.9851 N.am    1  UNL1       -0.2692
     21 C         141.4112  137.5724  162.7021 C.2     1  UNL1        0.2286
     22 O         140.1014  137.6206  161.9726 O.2     1  UNL1       -0.2747
     23 H         143.5419  137.8877  162.4639 H       1  UNL1        0.1563
     24 C         141.4499  137.1772  164.1486 C.3     1  UNL1        0.1027
     25 C         142.0075  138.1236  165.1700 C.3     1  UNL1        0.0818
     26 N         142.9715  139.1946  164.7529 N.3     1  UNL1       -0.2711
     27 C         144.4659  139.0706  164.7172 C.3     1  UNL1        0.0736
     28 C         145.0282  140.3769  164.2404 C.3     1  UNL1        0.0347
     29 C         143.8812  141.3083  163.9814 C.3     1  UNL1        0.0749
     30 C         142.6100  140.5776  164.2982 C.3     1  UNL1        0.0883
     31 N         143.9869  142.7222  163.4917 N.3     1  UNL1       -0.2702
     32 C         143.9466  143.8594  164.4691 C.3     1  UNL1        0.0897
     33 C         144.1328  142.9989  162.0247 C.3     1  UNL1        0.0897
@<TRIPOS>BOND
     1     7     8    1
     2     8     9   ar
     3     9    10   ar
     4    10    11    1
     5    10    12   ar
     6    12     1    1
     7     1     2   ar
     8     2     3   ar
     9     3    20    1
    10    20    21   am
    11    21    22    2
    12    21    24    1
    13    24    25    1
    14    25    26    1
    15    26    27    1
    16    27    28    1
    17    28    29    1
    18    29    31    1
    19    31    32    1
    20    31    33    1
    21    29    30    1
    22     3     4   ar
    23     4     5   ar
    24     5    14    1
    25    14    15   ar
    26    15    16   ar
    27    16    17   ar
    28    17    18    1
    29    17    19   ar
    30     5     6   ar
    31    12    13   ar
    32    13     8   ar
    33     6     1   ar
    34    30    26    1
    35    19    14   ar
    36    20    23    1
@<TRIPOS>MOLECULE
*****
 33 36 0 0 0
SMALL
GASTEIGER

@<TRIPOS>ATOM
      1 C         140.3479  144.1964  160.3864 C.ar    1  UNL1        0.1679
      2 C         140.7162  142.8458  159.8477 C.ar    1  UNL1        0.0733
      3 C         140.7924  142.6247  158.3661 C.ar    1  UNL1        0.1390
      4 N         140.5002  143.7540  157.4232 N.ar    1  UNL1       -0.2088
      5 C         140.1319  145.1046  157.9619 C.ar    1  UNL1        0.2001
      6 N         140.0558  145.3258  159.4435 N.ar    1  UNL1       -0.2047
      7 C         138.4635  144.9001  165.2685 C.3     1  UNL1        0.0540
      8 C         139.4056  144.7411  164.1121 C.ar    1  UNL1        0.0805
      9 C         140.9035  144.7752  164.1841 C.ar    1  UNL1        0.0312
     10 C         141.4388  144.5753  162.7972 C.ar    1  UNL1        0.0637
     11 C         142.8869  144.5392  162.4077 C.3     1  UNL1        0.0522
     12 N         140.2717  144.4177  161.8681 N.ar    1  UNL1       -0.2164
     13 N         139.0151  144.5202  162.6808 N.ar    1  UNL1       -0.1684
     14 C         139.8398  146.2340  157.0189 C.ar    1  UNL1        0.1805
     15 C         140.2514  146.3089  155.5785 C.ar    1  UNL1        0.0434
     16 C         139.7508  147.6080  155.0201 C.ar    1  UNL1        0.0362
     17 C         139.0297  148.3361  156.1156 C.ar    1  UNL1        0.1234
     18 C         138.3696  149.6777  155.9967 C.3     1  UNL1        0.0725
     19 O         139.0848  147.4869  157.3509 O.2     1  UNL1       -0.4546
     20 N         141.1607  141.2740  157.8274 N.am    1  UNL1       -0.2692
     21 C         142.6010  140.8604  157.7607 C.2     1  UNL1        0.2286
     22 O         143.6730  141.7975  158.2328 O.2     1  UNL1       -0.2747
     23 H         140.4571  140.6590  157.5175 H       1  UNL1        0.1563
     24 C         142.9693  139.5099  157.2220 C.3     1  UNL1        0.1027
     25 C         142.2551  138.2859  157.7138 C.3     1  UNL1        0.0818
     26 N         141.8310  138.1912  159.1495 N.3     1  UNL1       -0.2711
     27 C         142.7208  137.8650  160.3121 C.3     1  UNL1        0.0736
     28 C         141.8823  137.8782  161.5557 C.3     1  UNL1        0.0347
     29 C         140.4740  138.2126  161.1617 C.3     1  UNL1        0.0749
     30 C         140.4423  138.4060  159.6745 C.3     1  UNL1        0.0883
     31 N         139.3032  138.3325  162.0916 N.3     1  UNL1       -0.2702
     32 C         137.9393  138.6344  161.5451 C.3     1  UNL1        0.0897
     33 C         139.4961  138.1504  163.5679 C.3     1  UNL1        0.0897
@<TRIPOS>BOND
     1     7     8    1
     2     8     9   ar
     3     9    10   ar
     4    10    11    1
     5    10    12   ar
     6    12     1    1
     7     1     2   ar
     8     2     3   ar
     9     3    20    1
    10    20    21   am
    11    21    22    2
    12    21    24    1
    13    24    25    1
    14    25    26    1
    15    26    27    1
    16    27    28    1
    17    28    29    1
    18    29    31    1
    19    31    32    1
    20    31    33    1
    21    29    30    1
    22     3     4   ar
    23     4     5   ar
    24     5    14    1
    25    14    15   ar
    26    15    16   ar
    27    16    17   ar
    28    17    18    1
    29    17    19   ar
    30     5     6   ar
    31    12    13   ar
    32    13     8   ar
    33     6     1   ar
    34    30    26    1
    35    19    14   ar
    36    20    23    1
@<TRIPOS>MOLECULE
*****
 33 36 0 0 0
SMALL
GASTEIGER

@<TRIPOS>ATOM
      1 C         141.0257  144.3970  159.7772 C.ar    1  UNL1        0.1679
      2 C         140.9644  143.0020  159.2293 C.ar    1  UNL1        0.0733
      3 C         140.5227  142.7708  157.8146 C.ar    1  UNL1        0.1390
      4 N         140.1423  143.9344  156.9479 N.ar    1  UNL1       -0.2088
      5 C         140.2036  145.3294  157.4959 C.ar    1  UNL1        0.2001
      6 N         140.6453  145.5607  158.9105 N.ar    1  UNL1       -0.2047
      7 C         144.0172  144.7058  164.1174 C.3     1  UNL1        0.0540
      8 C         142.8424  144.7702  163.1869 C.ar    1  UNL1        0.0805
      9 C         141.4517  145.1984  163.5511 C.ar    1  UNL1        0.0312
     10 C         140.6019  145.1106  162.3182 C.ar    1  UNL1        0.0637
     11 C         139.1428  145.4463  162.2274 C.3     1  UNL1        0.0522
     12 N         141.4674  144.6283  161.1920 N.ar    1  UNL1       -0.2164
     13 N         142.8521  144.4180  161.7289 N.ar    1  UNL1       -0.1684
     14 C         139.8232  146.4931  156.6292 C.ar    1  UNL1        0.1805
     15 C         140.0761  146.6148  155.1557 C.ar    1  UNL1        0.0434
     16 C         139.5323  147.9363  154.6996 C.ar    1  UNL1        0.0362
     17 C         138.9433  148.6313  155.8913 C.ar    1  UNL1        0.1234
     18 C         138.2894  149.9812  155.8906 C.3     1  UNL1        0.0725
     19 O         139.1231  147.7393  157.0838 O.2     1  UNL1       -0.4546
     20 N         140.4613  141.3758  157.2665 N.am    1  UNL1       -0.2692
     21 C         141.7045  140.7210  156.7413 C.2     1  UNL1        0.2286
     22 O         143.0090  141.4613  156.7641 O.2     1  UNL1       -0.2747
     23 H         139.6052  140.8900  157.2516 H       1  UNL1        0.1563
     24 C         141.6432  139.3261  156.1933 C.3     1  UNL1        0.1027
     25 C         141.1734  138.1983  157.0635 C.3     1  UNL1        0.0818
     26 N         141.0684  138.3898  158.5476 N.3     1  UNL1       -0.2711
     27 C         142.2163  138.4666  159.5101 C.3     1  UNL1        0.0736
     28 C         141.6544  138.6623  160.8870 C.3     1  UNL1        0.0347
     29 C         140.1591  138.7064  160.7756 C.3     1  UNL1        0.0749
     30 C         139.7970  138.5380  159.3296 C.3     1  UNL1        0.0883
     31 N         139.1953  138.8872  161.9106 N.3     1  UNL1       -0.2702
     32 C         139.6836  139.3928  163.2358 C.3     1  UNL1        0.0897
     33 C         137.7433  138.5625  161.7205 C.3     1  UNL1        0.0897
@<TRIPOS>BOND
     1     7     8    1
     2     8     9   ar
     3     9    10   ar
     4    10    11    1
     5    10    12   ar
     6    12     1    1
     7     1     2   ar
     8     2     3   ar
     9     3    20    1
    10    20    21   am
    11    21    22    2
    12    21    24    1
    13    24    25    1
    14    25    26    1
    15    26    27    1
    16    27    28    1
    17    28    29    1
    18    29    31    1
    19    31    32    1
    20    31    33    1
    21    29    30    1
    22     3     4   ar
    23     4     5   ar
    24     5    14    1
    25    14    15   ar
    26    15    16   ar
    27    16    17   ar
    28    17    18    1
    29    17    19   ar
    30     5     6   ar
    31    12    13   ar
    32    13     8   ar
    33     6     1   ar
    34    30    26    1
    35    19    14   ar
    36    20    23    1
@<TRIPOS>MOLECULE
*****
 33 36 0 0 0
SMALL
GASTEIGER

@<TRIPOS>ATOM
      1 C         142.0479  139.1698  161.0344 C.ar    1  UNL1        0.1679
      2 C         141.6062  140.5515  160.6525 C.ar    1  UNL1        0.0733
      3 C         141.6077  140.9678  159.2115 C.ar    1  UNL1        0.1390
      4 N         142.0511  140.0025  158.1524 N.ar    1  UNL1       -0.2088
      5 C         142.4928  138.6209  158.5343 C.ar    1  UNL1        0.2001
      6 N         142.4912  138.2046  159.9753 N.ar    1  UNL1       -0.2047
      7 C         143.5610  138.3491  166.0262 C.3     1  UNL1        0.0540
      8 C         142.7418  138.3762  164.7700 C.ar    1  UNL1        0.0805
      9 C         141.3459  137.8491  164.6161 C.ar    1  UNL1        0.0312
     10 C         140.9161  138.0822  163.1981 C.ar    1  UNL1        0.0637
     11 C         139.5890  137.7096  162.6065 C.3     1  UNL1        0.0522
     12 N         142.0463  138.7534  162.4755 N.ar    1  UNL1       -0.2164
     13 N         143.1747  138.9351  163.4470 N.ar    1  UNL1       -0.1684
     14 C         142.9361  137.6556  157.4752 C.ar    1  UNL1        0.1805
     15 C         143.4081  138.0141  156.0973 C.ar    1  UNL1        0.0434
     16 C         143.7490  136.7424  155.3785 C.ar    1  UNL1        0.0362
     17 C         143.4877  135.5979  156.3123 C.ar    1  UNL1        0.1234
     18 C         143.6928  134.1443  156.0043 C.3     1  UNL1        0.0725
     19 O         142.9853  136.1623  157.6081 O.2     1  UNL1       -0.4546
     20 N         141.1660  142.3495  158.8295 N.am    1  UNL1       -0.2692
     21 C         142.0804  143.5176  159.0519 C.2     1  UNL1        0.2286
     22 O         143.4366  143.3039  159.6562 O.2     1  UNL1       -0.2747
     23 H         140.2759  142.4897  158.4328 H       1  UNL1        0.1563
     24 C         141.6387  144.8992  158.6699 C.3     1  UNL1        0.1027
     25 C         140.3301  145.4338  159.1716 C.3     1  UNL1        0.0818
     26 N         139.8380  145.0527  160.5364 N.3     1  UNL1       -0.2711
     27 C         139.9764  145.8730  161.7845 C.3     1  UNL1        0.0736
     28 C         139.3450  145.1116  162.9121 C.3     1  UNL1        0.0347
     29 C         138.8163  143.8205  162.3609 C.3     1  UNL1        0.0749
     30 C         139.1210  143.7841  160.8925 C.3     1  UNL1        0.0883
     31 N         138.1074  142.7534  163.1410 N.3     1  UNL1       -0.2702
     32 C         137.6667  141.4927  162.4580 C.3     1  UNL1        0.0897
     33 C         137.8391  142.9469  164.6041 C.3     1  UNL1        0.0897
@<TRIPOS>BOND
     1     7     8    1
     2     8     9   ar
     3     9    10   ar
     4    10    11    1
     5    10    12   ar
     6    12     1    1
     7     1     2   ar
     8     2     3   ar
     9     3    20    1
    10    20    21   am
    11    21    22    2
    12    21    24    1
    13    24    25    1
    14    25    26    1
    15    26    27    1
    16    27    28    1
    17    28    29    1
    18    29    31    1
    19    31    32    1
    20    31    33    1
    21    29    30    1
    22     3     4   ar
    23     4     5   ar
    24     5    14    1
    25    14    15   ar
    26    15    16   ar
    27    16    17   ar
    28    17    18    1
    29    17    19   ar
    30     5     6   ar
    31    12    13   ar
    32    13     8   ar
    33     6     1   ar
    34    30    26    1
    35    19    14   ar
    36    20    23    1
@<TRIPOS>MOLECULE
*****
 33 36 0 0 0
SMALL
GASTEIGER

@<TRIPOS>ATOM
      1 C         142.6265  142.5213  158.3490 C.ar    1  UNL1        0.1679
      2 C         143.0918  142.7184  159.7613 C.ar    1  UNL1        0.0733
      3 C         144.5583  142.7062  160.0764 C.ar    1  UNL1        0.1390
      4 N         145.5594  142.4968  158.9792 N.ar    1  UNL1       -0.2088
      5 C         145.0942  142.2997  157.5669 C.ar    1  UNL1        0.2001
      6 N         143.6277  142.3119  157.2518 N.ar    1  UNL1       -0.2047
      7 C         137.6297  140.9696  157.6380 C.3     1  UNL1        0.0540
      8 C         138.8633  141.8203  157.7070 C.ar    1  UNL1        0.0805
      9 C         138.9435  143.2844  157.3907 C.ar    1  UNL1        0.0312
     10 C         140.3629  143.7251  157.5927 C.ar    1  UNL1        0.0637
     11 C         140.8924  145.1138  157.3892 C.3     1  UNL1        0.0522
     12 N         141.1600  142.5335  158.0338 N.ar    1  UNL1       -0.2164
     13 N         140.2332  141.3562  158.1045 N.ar    1  UNL1       -0.1684
     14 C         146.0953  142.0903  156.4697 C.ar    1  UNL1        0.1805
     15 C         145.7814  141.7543  155.0420 C.ar    1  UNL1        0.0434
     16 C         147.0782  141.6365  154.2975 C.ar    1  UNL1        0.0362
     17 C         148.1938  141.8996  155.2652 C.ar    1  UNL1        0.1234
     18 C         149.6594  141.8848  154.9464 C.3     1  UNL1        0.0725
     19 O         147.5863  142.1800  156.6077 O.2     1  UNL1       -0.4546
     20 N         145.0236  142.9034  161.4887 N.am    1  UNL1       -0.2692
     21 C         145.0836  141.7358  162.4285 C.2     1  UNL1        0.2286
     22 O         144.6783  140.3711  161.9560 O.2     1  UNL1       -0.2747
     23 H         145.2896  143.7991  161.7989 H       1  UNL1        0.1563
     24 C         145.5489  141.9330  163.8408 C.3     1  UNL1        0.1027
     25 C         144.6637  142.6287  164.8319 C.3     1  UNL1        0.0818
     26 N         143.5117  143.4618  164.3534 N.3     1  UNL1       -0.2711
     27 C         143.5560  144.9264  164.0329 C.3     1  UNL1        0.0736
     28 C         142.1849  145.3463  163.5927 C.3     1  UNL1        0.0347
     29 C         141.2932  144.1411  163.6411 C.3     1  UNL1        0.0749
     30 C         142.1132  142.9763  164.1112 C.3     1  UNL1        0.0883
     31 N         139.8371  144.1066  163.2824 N.3     1  UNL1       -0.2702
     32 C         139.2197  145.2558  162.5421 C.3     1  UNL1        0.0897
     33 C         138.9985  142.9229  163.6640 C.3     1  UNL1        0.0897
@<TRIPOS>BOND
     1     7     8    1
     2     8     9   ar
     3     9    10   ar
     4    10    11    1
     5    10    12   ar
     6    12     1    1
     7     1     2   ar
     8     2     3   ar
     9     3    20    1
    10    20    21   am
    11    21    22    2
    12    21    24    1
    13    24    25    1
    14    25    26    1
    15    26    27    1
    16    27    28    1
    17    28    29    1
    18    29    31    1
    19    31    32    1
    20    31    33    1
    21    29    30    1
    22     3     4   ar
    23     4     5   ar
    24     5    14    1
    25    14    15   ar
    26    15    16   ar
    27    16    17   ar
    28    17    18    1
    29    17    19   ar
    30     5     6   ar
    31    12    13   ar
    32    13     8   ar
    33     6     1   ar
    34    30    26    1
    35    19    14   ar
    36    20    23    1
