@<TRIPOS>MOLECULE
*****
 38 43 0 0 0
SMALL
GASTEIGER

@<TRIPOS>ATOM
      1 C         141.7889  138.3821  159.7912 C.3     1  UNL1        0.0930
      2 C         140.9090  139.5452  159.4404 C.3     1  UNL1        0.0427
      3 C         140.2504  140.0246  160.6999 C.3     1  UNL1        0.0927
      4 N         140.7233  139.1579  161.8292 N.pl3   1  UNL1       -0.3033
      5 C         141.6742  138.1428  161.2675 C.3     1  UNL1        0.1104
      6 C         140.3168  139.2842  163.2675 C.ar    1  UNL1        0.0878
      7 C         139.2066  138.4341  163.8105 C.ar    1  UNL1        0.1543
      8 F         138.5029  137.4578  162.9152 F       1  UNL1       -0.2028
      9 C         138.8001  138.5604  165.2488 C.ar    1  UNL1        0.0356
     10 C         139.5038  139.5367  166.1442 C.ar    1  UNL1        0.0580
     11 C         139.0973  139.6629  167.5825 C.ar    1  UNL1        0.1996
     12 O         137.9871  138.8129  168.1255 O.2     1  UNL1       -0.2864
     13 C         139.8010  140.6392  168.4779 C.ar    1  UNL1        0.0701
     14 C         140.9112  141.4893  167.9348 C.ar    1  UNL1        0.0801
     15 N         141.3177  141.3630  166.4965 N.ar    1  UNL1       -0.3270
     16 C         140.6140  140.3867  165.6012 C.ar    1  UNL1        0.0750
     17 C         141.0205  140.2605  164.1629 C.ar    1  UNL1        0.0890
     18 CL        142.1307  141.1105  163.6198 Cl      1  UNL1       -0.0794
     19 C         139.3945  140.7655  169.9162 C.2     1  UNL1        0.0774
     20 O         139.0293  142.1078  170.4773 O.co2   1  UNL1       -0.5444
     21 O         139.3532  139.5494  170.7935 O.co2   1  UNL1       -0.5444
     22 C         142.4279  142.2131  165.9536 C.3     1  UNL1        0.0857
     23 C         143.8913  142.5232  165.8426 C.3     1  UNL1        0.0245
     24 C         142.8875  143.3753  165.1241 C.3     1  UNL1        0.0245
     25 O         140.6066  137.3714  157.2259 O.2     1  UNL1       -0.2730
     26 C         142.0439  137.0910  157.5511 C.2     1  UNL1        0.2456
     27 N         142.6350  137.5963  158.8338 N.am    1  UNL1       -0.3026
     28 H         143.5783  137.4122  159.0472 H       1  UNL1        0.1495
     29 C         142.8900  136.3052  156.5937 C.3     1  UNL1        0.1929
     30 N         142.5125  134.8970  156.2408 N.ar    1  UNL1       -0.3004
     31 C         141.3845  134.4855  155.3417 C.ar    1  UNL1        0.1789
     32 N         141.3717  132.9873  155.2703 N.ar    1  UNL1       -0.2239
     33 C         142.4916  132.4728  156.1251 C.ar    1  UNL1        0.0988
     34 C         142.9606  131.0821  156.4349 C.ar    1  UNL1        0.0206
     35 C         144.1346  130.8716  157.3445 C.ar    1  UNL1        0.0016
     36 C         144.8398  132.0520  157.9443 C.ar    1  UNL1        0.0016
     37 C         144.3709  133.4427  157.6345 C.ar    1  UNL1        0.0188
     38 C         143.1968  133.6531  156.7249 C.ar    1  UNL1        0.0793
@<TRIPOS>UNITY_ATOM_ATTR
20 1
charge -1
@<TRIPOS>BOND
     1    25    26    2
     2    26    29    1
     3    29    30    1
     4    30    31   ar
     5    31    32   ar
     6    32    33   ar
     7    33    34   ar
     8    34    35   ar
     9    35    36   ar
    10    36    37   ar
    11    37    38   ar
    12    26    27   am
    13    27     1    1
    14     1     2    1
    15     2     3    1
    16     3     4    1
    17     4     6    1
    18     6     7   ar
    19     7     8    1
    20     7     9   ar
    21     9    10   ar
    22    10    11   ar
    23    11    12    2
    24    11    13   ar
    25    13    19    1
    26    19    20   ar
    27    19    21   ar
    28    13    14   ar
    29    14    15   ar
    30    15    22    1
    31    22    23    1
    32    23    24    1
    33    15    16   ar
    34    16    17   ar
    35    17    18    1
    36     4     5    1
    37    38    30   ar
    38     5     1    1
    39    38    33   ar
    40    17     6   ar
    41    16    10   ar
    42    24    22    1
    43    27    28    1
@<TRIPOS>MOLECULE
*****
 38 43 0 0 0
SMALL
GASTEIGER

@<TRIPOS>ATOM
      1 C         140.6924  138.8557  159.1398 C.3     1  UNL1        0.0930
      2 C         140.1756  140.2611  159.0500 C.3     1  UNL1        0.0427
      3 C         139.7900  140.7023  160.4308 C.3     1  UNL1        0.0927
      4 N         140.0684  139.5697  161.3740 N.pl3   1  UNL1       -0.3033
      5 C         140.6261  138.4285  160.5762 C.3     1  UNL1        0.1104
      6 C         139.8308  139.5770  162.8551 C.ar    1  UNL1        0.0878
      7 C         138.7001  138.7818  163.4373 C.ar    1  UNL1        0.1543
      8 F         137.8069  137.9791  162.5384 F       1  UNL1       -0.2028
      9 C         138.4626  138.7891  164.9183 C.ar    1  UNL1        0.0356
     10 C         139.3558  139.5917  165.8172 C.ar    1  UNL1        0.0580
     11 C         139.1182  139.5991  167.2983 C.ar    1  UNL1        0.1996
     12 O         137.9875  138.8038  167.8804 O.2     1  UNL1       -0.2864
     13 C         140.0114  140.4017  168.1971 C.ar    1  UNL1        0.0701
     14 C         141.1422  141.1970  167.6149 C.ar    1  UNL1        0.0801
     15 N         141.3797  141.1896  166.1339 N.ar    1  UNL1       -0.3270
     16 C         140.4865  140.3870  165.2350 C.ar    1  UNL1        0.0750
     17 C         140.7240  140.3797  163.7540 C.ar    1  UNL1        0.0890
     18 CL        141.8548  141.1750  163.1718 Cl      1  UNL1       -0.0794
     19 C         139.7739  140.4090  169.6782 C.2     1  UNL1        0.0774
     20 O         140.4631  139.4044  170.5533 O.co2   1  UNL1       -0.5444
     21 O         138.8472  141.4210  170.2842 O.co2   1  UNL1       -0.5444
     22 C         142.5104  141.9849  165.5517 C.3     1  UNL1        0.0857
     23 C         143.0146  143.2311  164.8864 C.3     1  UNL1        0.0245
     24 C         143.9648  142.1162  165.2088 C.3     1  UNL1        0.0245
     25 O         143.6326  138.6944  158.5658 O.2     1  UNL1       -0.2730
     26 C         142.6584  137.9431  157.7074 C.2     1  UNL1        0.2456
     27 N         141.1883  138.0238  157.9945 N.am    1  UNL1       -0.3026
     28 H         140.5490  137.5307  157.4311 H       1  UNL1        0.1495
     29 C         143.1544  137.1111  156.5621 C.3     1  UNL1        0.1929
     30 N         142.9441  135.6259  156.5676 N.ar    1  UNL1       -0.3004
     31 C         143.2793  134.6922  157.6927 C.ar    1  UNL1        0.1789
     32 N         142.9041  133.3029  157.2694 N.ar    1  UNL1       -0.2239
     33 C         142.3371  133.3780  155.8828 C.ar    1  UNL1        0.0988
     34 C         141.8014  132.3246  154.9590 C.ar    1  UNL1        0.0206
     35 C         141.2904  132.7068  153.6016 C.ar    1  UNL1        0.0016
     36 C         141.3152  134.1426  153.1678 C.ar    1  UNL1        0.0016
     37 C         141.8508  135.1960  154.0915 C.ar    1  UNL1        0.0188
     38 C         142.3618  134.8137  155.4491 C.ar    1  UNL1        0.0793
@<TRIPOS>UNITY_ATOM_ATTR
20 1
charge -1
@<TRIPOS>BOND
     1    25    26    2
     2    26    29    1
     3    29    30    1
     4    30    31   ar
     5    31    32   ar
     6    32    33   ar
     7    33    34   ar
     8    34    35   ar
     9    35    36   ar
    10    36    37   ar
    11    37    38   ar
    12    26    27   am
    13    27     1    1
    14     1     2    1
    15     2     3    1
    16     3     4    1
    17     4     6    1
    18     6     7   ar
    19     7     8    1
    20     7     9   ar
    21     9    10   ar
    22    10    11   ar
    23    11    12    2
    24    11    13   ar
    25    13    19    1
    26    19    20   ar
    27    19    21   ar
    28    13    14   ar
    29    14    15   ar
    30    15    22    1
    31    22    23    1
    32    23    24    1
    33    15    16   ar
    34    16    17   ar
    35    17    18    1
    36     4     5    1
    37    38    30   ar
    38     5     1    1
    39    38    33   ar
    40    17     6   ar
    41    16    10   ar
    42    24    22    1
    43    27    28    1
@<TRIPOS>MOLECULE
*****
 38 43 0 0 0
SMALL
GASTEIGER

@<TRIPOS>ATOM
      1 C         140.7549  138.8192  159.1572 C.3     1  UNL1        0.0930
      2 C         140.0606  140.1422  159.0245 C.3     1  UNL1        0.0427
      3 C         139.6380  140.5834  160.3944 C.3     1  UNL1        0.0927
      4 N         140.0711  139.5332  161.3738 N.pl3   1  UNL1       -0.3033
      5 C         140.7614  138.4428  160.6092 C.3     1  UNL1        0.1104
      6 C         139.8524  139.5672  162.8574 C.ar    1  UNL1        0.0878
      7 C         138.7304  138.7812  163.4683 C.ar    1  UNL1        0.1543
      8 F         137.8272  137.9610  162.5957 F       1  UNL1       -0.2028
      9 C         138.5117  138.8152  164.9519 C.ar    1  UNL1        0.0356
     10 C         139.4150  139.6353  165.8245 C.ar    1  UNL1        0.0580
     11 C         139.1962  139.6694  167.3082 C.ar    1  UNL1        0.1996
     12 O         138.0743  138.8833  167.9191 O.2     1  UNL1       -0.2864
     13 C         140.0995  140.4895  168.1808 C.ar    1  UNL1        0.0701
     14 C         141.2215  141.2756  167.5698 C.ar    1  UNL1        0.0801
     15 N         141.4402  141.2415  166.0863 N.ar    1  UNL1       -0.3270
     16 C         140.5370  140.4214  165.2136 C.ar    1  UNL1        0.0750
     17 C         140.7557  140.3873  163.7301 C.ar    1  UNL1        0.0890
     18 CL        141.8777  141.1734  163.1191 Cl      1  UNL1       -0.0794
     19 C         139.8808  140.5236  169.6643 C.2     1  UNL1        0.0774
     20 O         140.3864  139.4023  170.5229 O.co2   1  UNL1       -0.5444
     21 O         139.1565  141.6790  170.2894 O.co2   1  UNL1       -0.5444
     22 C         142.5622  142.0276  165.4753 C.3     1  UNL1        0.0857
     23 C         143.0913  143.3129  164.9114 C.3     1  UNL1        0.0245
     24 C         143.9764  142.1039  164.9812 C.3     1  UNL1        0.0245
     25 O         143.6027  139.2582  158.3220 O.2     1  UNL1       -0.2730
     26 C         142.7639  138.2335  157.6174 C.2     1  UNL1        0.2456
     27 N         141.3400  138.0140  158.0350 N.am    1  UNL1       -0.3026
     28 H         140.7895  137.3415  157.5726 H       1  UNL1        0.1495
     29 C         143.3490  137.4283  156.4952 C.3     1  UNL1        0.1929
     30 N         142.5724  136.2884  155.9057 N.ar    1  UNL1       -0.3004
     31 C         141.4740  136.4015  154.8905 C.ar    1  UNL1        0.1789
     32 N         140.9806  135.0183  154.5853 N.ar    1  UNL1       -0.2239
     33 C         141.7741  134.0503  155.4118 C.ar    1  UNL1        0.0988
     34 C         141.7279  132.5554  155.5269 C.ar    1  UNL1        0.0206
     35 C         142.6655  131.8455  156.4579 C.ar    1  UNL1        0.0016
     36 C         143.6494  132.6305  157.2740 C.ar    1  UNL1        0.0016
     37 C         143.6955  134.1254  157.1590 C.ar    1  UNL1        0.0188
     38 C         142.7579  134.8352  156.2279 C.ar    1  UNL1        0.0793
@<TRIPOS>UNITY_ATOM_ATTR
20 1
charge -1
@<TRIPOS>BOND
     1    25    26    2
     2    26    29    1
     3    29    30    1
     4    30    31   ar
     5    31    32   ar
     6    32    33   ar
     7    33    34   ar
     8    34    35   ar
     9    35    36   ar
    10    36    37   ar
    11    37    38   ar
    12    26    27   am
    13    27     1    1
    14     1     2    1
    15     2     3    1
    16     3     4    1
    17     4     6    1
    18     6     7   ar
    19     7     8    1
    20     7     9   ar
    21     9    10   ar
    22    10    11   ar
    23    11    12    2
    24    11    13   ar
    25    13    19    1
    26    19    20   ar
    27    19    21   ar
    28    13    14   ar
    29    14    15   ar
    30    15    22    1
    31    22    23    1
    32    23    24    1
    33    15    16   ar
    34    16    17   ar
    35    17    18    1
    36     4     5    1
    37    38    30   ar
    38     5     1    1
    39    38    33   ar
    40    17     6   ar
    41    16    10   ar
    42    24    22    1
    43    27    28    1
@<TRIPOS>MOLECULE
*****
 38 43 0 0 0
SMALL
GASTEIGER

@<TRIPOS>ATOM
      1 C         140.4877  138.6641  160.5728 C.3     1  UNL1        0.0930
      2 C         139.2162  138.0398  161.0667 C.3     1  UNL1        0.0427
      3 C         139.1155  138.2975  162.5410 C.3     1  UNL1        0.0927
      4 N         140.3246  139.0811  162.9583 N.pl3   1  UNL1       -0.3033
      5 C         141.1726  139.3076  161.7419 C.3     1  UNL1        0.1104
      6 C         140.6318  139.5549  164.3480 C.ar    1  UNL1        0.0878
      7 C         141.3516  138.6527  165.3060 C.ar    1  UNL1        0.1543
      8 F         141.7642  137.2767  164.8744 F       1  UNL1       -0.2028
      9 C         141.6588  139.1265  166.6956 C.ar    1  UNL1        0.0356
     10 C         141.2461  140.5026  167.1272 C.ar    1  UNL1        0.0580
     11 C         141.5533  140.9764  168.5169 C.ar    1  UNL1        0.1996
     12 O         142.2731  140.0742  169.4749 O.2     1  UNL1       -0.2864
     13 C         141.1407  142.3524  168.9485 C.ar    1  UNL1        0.0701
     14 C         140.4208  143.2546  167.9903 C.ar    1  UNL1        0.0801
     15 N         140.1137  142.7808  166.6007 N.ar    1  UNL1       -0.3270
     16 C         140.5263  141.4047  166.1692 C.ar    1  UNL1        0.0750
     17 C         140.2191  140.9309  164.7795 C.ar    1  UNL1        0.0890
     18 CL        139.4993  141.8331  163.8214 Cl      1  UNL1       -0.0794
     19 C         141.4478  142.8263  170.3381 C.2     1  UNL1        0.0774
     20 O         140.5039  142.5164  171.4620 O.co2   1  UNL1       -0.5444
     21 O         142.6989  143.6100  170.6039 O.co2   1  UNL1       -0.5444
     22 C         139.3939  143.6830  165.6427 C.3     1  UNL1        0.0857
     23 C         139.4228  144.7808  164.6210 C.3     1  UNL1        0.0245
     24 C         138.1183  144.1478  165.0050 C.3     1  UNL1        0.0245
     25 O         142.9867  137.1554  159.8809 O.2     1  UNL1       -0.2730
     26 C         142.2359  137.8934  158.8123 C.2     1  UNL1        0.2456
     27 N         140.9864  138.6478  159.1583 N.am    1  UNL1       -0.3026
     28 H         140.4937  139.1321  158.4570 H       1  UNL1        0.1495
     29 C         142.7347  137.8770  157.3978 C.3     1  UNL1        0.1929
     30 N         142.1955  136.8716  156.4239 N.ar    1  UNL1       -0.3004
     31 C         141.3182  137.1694  155.2442 C.ar    1  UNL1        0.1789
     32 N         141.0194  135.8737  154.5500 N.ar    1  UNL1       -0.2239
     33 C         141.7120  134.7752  155.3007 C.ar    1  UNL1        0.0988
     34 C         141.7747  133.2929  155.0793 C.ar    1  UNL1        0.0206
     35 C         142.5643  132.4275  156.0159 C.ar    1  UNL1        0.0016
     36 C         143.2912  133.0442  157.1741 C.ar    1  UNL1        0.0016
     37 C         143.2285  134.5264  157.3956 C.ar    1  UNL1        0.0188
     38 C         142.4389  135.3919  156.4588 C.ar    1  UNL1        0.0793
@<TRIPOS>UNITY_ATOM_ATTR
20 1
charge -1
@<TRIPOS>BOND
     1    25    26    2
     2    26    29    1
     3    29    30    1
     4    30    31   ar
     5    31    32   ar
     6    32    33   ar
     7    33    34   ar
     8    34    35   ar
     9    35    36   ar
    10    36    37   ar
    11    37    38   ar
    12    26    27   am
    13    27     1    1
    14     1     2    1
    15     2     3    1
    16     3     4    1
    17     4     6    1
    18     6     7   ar
    19     7     8    1
    20     7     9   ar
    21     9    10   ar
    22    10    11   ar
    23    11    12    2
    24    11    13   ar
    25    13    19    1
    26    19    20   ar
    27    19    21   ar
    28    13    14   ar
    29    14    15   ar
    30    15    22    1
    31    22    23    1
    32    23    24    1
    33    15    16   ar
    34    16    17   ar
    35    17    18    1
    36     4     5    1
    37    38    30   ar
    38     5     1    1
    39    38    33   ar
    40    17     6   ar
    41    16    10   ar
    42    24    22    1
    43    27    28    1
@<TRIPOS>MOLECULE
*****
 38 43 0 0 0
SMALL
GASTEIGER

@<TRIPOS>ATOM
      1 C         143.4882  140.0870  160.6901 C.3     1  UNL1        0.0930
      2 C         143.3069  141.5502  160.4140 C.3     1  UNL1        0.0427
      3 C         143.0505  142.2403  161.7209 C.3     1  UNL1        0.0927
      4 N         143.0734  141.2037  162.8047 N.pl3   1  UNL1       -0.3033
      5 C         143.3438  139.8729  162.1677 C.3     1  UNL1        0.1104
      6 C         142.8627  141.4539  164.2687 C.ar    1  UNL1        0.0878
      7 C         143.8840  142.2236  165.0526 C.ar    1  UNL1        0.1543
      8 F         145.1159  142.7431  164.3726 F       1  UNL1       -0.2028
      9 C         143.6733  142.4737  166.5165 C.ar    1  UNL1        0.0356
     10 C         142.4413  141.9542  167.1965 C.ar    1  UNL1        0.0580
     11 C         142.2306  142.2044  168.6604 C.ar    1  UNL1        0.1996
     12 O         143.2519  142.9741  169.4443 O.2     1  UNL1       -0.2864
     13 C         140.9987  141.6849  169.3404 C.ar    1  UNL1        0.0701
     14 C         139.9774  140.9152  168.5564 C.ar    1  UNL1        0.0801
     15 N         140.1881  140.6650  167.0925 N.ar    1  UNL1       -0.3270
     16 C         141.4200  141.1845  166.4126 C.ar    1  UNL1        0.0750
     17 C         141.6307  140.9344  164.9487 C.ar    1  UNL1        0.0890
     18 CL        140.6094  140.1646  164.1647 Cl      1  UNL1       -0.0794
     19 C         140.7880  141.9350  170.8043 C.2     1  UNL1        0.0774
     20 O         139.7349  142.9031  171.2558 O.co2   1  UNL1       -0.5444
     21 O         141.6304  141.2171  171.8167 O.co2   1  UNL1       -0.5444
     22 C         139.1668  139.8953  166.3086 C.3     1  UNL1        0.0857
     23 C         138.0173  139.8701  165.3453 C.3     1  UNL1        0.0245
     24 C         138.5474  138.5874  165.9141 C.3     1  UNL1        0.0245
     25 O         141.2272  138.4824  159.5440 O.2     1  UNL1       -0.2730
     26 C         142.6347  138.2222  159.0950 C.2     1  UNL1        0.2456
     27 N         143.7651  139.0246  159.6681 N.am    1  UNL1       -0.3026
     28 H         144.6889  138.8538  159.3735 H       1  UNL1        0.1495
     29 C         142.9117  137.1598  158.0731 C.3     1  UNL1        0.1929
     30 N         142.6120  137.4151  156.6256 N.ar    1  UNL1       -0.3004
     31 C         142.4653  138.7609  155.9797 C.ar    1  UNL1        0.1789
     32 N         142.1691  138.5470  154.5249 N.ar    1  UNL1       -0.2239
     33 C         142.1327  137.0690  154.2717 C.ar    1  UNL1        0.0988
     34 C         141.8857  136.2697  153.0266 C.ar    1  UNL1        0.0206
     35 C         141.9124  134.7709  153.0799 C.ar    1  UNL1        0.0016
     36 C         142.1862  134.0713  154.3783 C.ar    1  UNL1        0.0016
     37 C         142.4332  134.8706  155.6234 C.ar    1  UNL1        0.0188
     38 C         142.4065  136.3694  155.5700 C.ar    1  UNL1        0.0793
@<TRIPOS>UNITY_ATOM_ATTR
20 1
charge -1
@<TRIPOS>BOND
     1    25    26    2
     2    26    29    1
     3    29    30    1
     4    30    31   ar
     5    31    32   ar
     6    32    33   ar
     7    33    34   ar
     8    34    35   ar
     9    35    36   ar
    10    36    37   ar
    11    37    38   ar
    12    26    27   am
    13    27     1    1
    14     1     2    1
    15     2     3    1
    16     3     4    1
    17     4     6    1
    18     6     7   ar
    19     7     8    1
    20     7     9   ar
    21     9    10   ar
    22    10    11   ar
    23    11    12    2
    24    11    13   ar
    25    13    19    1
    26    19    20   ar
    27    19    21   ar
    28    13    14   ar
    29    14    15   ar
    30    15    22    1
    31    22    23    1
    32    23    24    1
    33    15    16   ar
    34    16    17   ar
    35    17    18    1
    36     4     5    1
    37    38    30   ar
    38     5     1    1
    39    38    33   ar
    40    17     6   ar
    41    16    10   ar
    42    24    22    1
    43    27    28    1
@<TRIPOS>MOLECULE
*****
 38 43 0 0 0
SMALL
GASTEIGER

@<TRIPOS>ATOM
      1 C         139.9702  138.4819  160.8494 C.3     1  UNL1        0.0930
      2 C         141.2198  137.7485  161.2379 C.3     1  UNL1        0.0427
      3 C         141.4548  137.9762  162.7018 C.3     1  UNL1        0.0927
      4 N         140.3505  138.8503  163.2181 N.pl3   1  UNL1       -0.3033
      5 C         139.4330  139.1628  162.0732 C.3     1  UNL1        0.1104
      6 C         140.1915  139.3280  164.6311 C.ar    1  UNL1        0.0878
      7 C         139.2085  138.6565  165.5437 C.ar    1  UNL1        0.1543
      8 F         138.3845  137.5074  165.0433 F       1  UNL1       -0.2028
      9 C         139.0496  139.1342  166.9567 C.ar    1  UNL1        0.0356
     10 C         139.8737  140.2834  167.4570 C.ar    1  UNL1        0.0580
     11 C         139.7147  140.7611  168.8701 C.ar    1  UNL1        0.1996
     12 O         138.7318  140.0896  169.7827 O.2     1  UNL1       -0.2864
     13 C         140.5388  141.9102  169.3705 C.ar    1  UNL1        0.0701
     14 C         141.5218  142.5817  168.4578 C.ar    1  UNL1        0.0801
     15 N         141.6807  142.1040  167.0448 N.ar    1  UNL1       -0.3270
     16 C         140.8567  140.9548  166.5444 C.ar    1  UNL1        0.0750
     17 C         141.0156  140.4771  165.1315 C.ar    1  UNL1        0.0890
     18 CL        141.9986  141.1486  164.2188 Cl      1  UNL1       -0.0794
     19 C         140.3799  142.3879  170.7834 C.2     1  UNL1        0.0774
     20 O         141.3967  142.0134  171.8206 O.co2   1  UNL1       -0.5444
     21 O         139.2041  143.2402  171.1593 O.co2   1  UNL1       -0.5444
     22 C         142.6637  142.7754  166.1322 C.3     1  UNL1        0.0857
     23 C         142.9492  143.6790  164.9695 C.3     1  UNL1        0.0245
     24 C         144.0807  143.0349  165.7143 C.3     1  UNL1        0.0245
     25 O         141.2253  140.1688  158.7094 O.2     1  UNL1       -0.2730
     26 C         139.9919  139.3700  158.4079 C.2     1  UNL1        0.2456
     27 N         139.3644  138.5266  159.4780 N.am    1  UNL1       -0.3026
     28 H         138.5549  138.0023  159.2801 H       1  UNL1        0.1495
     29 C         139.3860  139.4146  157.0365 C.3     1  UNL1        0.1929
     30 N         138.3485  140.4470  156.7081 N.ar    1  UNL1       -0.3004
     31 C         138.1652  141.7644  157.4016 C.ar    1  UNL1        0.1789
     32 N         137.0156  142.4748  156.7506 N.ar    1  UNL1       -0.2239
     33 C         136.4885  141.5966  155.6549 C.ar    1  UNL1        0.0988
     34 C         135.3648  141.7761  154.6776 C.ar    1  UNL1        0.0206
     35 C         135.0648  140.7024  153.6741 C.ar    1  UNL1        0.0016
     36 C         135.8887  139.4491  153.6478 C.ar    1  UNL1        0.0016
     37 C         137.0124  139.2695  154.6250 C.ar    1  UNL1        0.0188
     38 C         137.3123  140.3433  155.6286 C.ar    1  UNL1        0.0793
@<TRIPOS>UNITY_ATOM_ATTR
20 1
charge -1
@<TRIPOS>BOND
     1    25    26    2
     2    26    29    1
     3    29    30    1
     4    30    31   ar
     5    31    32   ar
     6    32    33   ar
     7    33    34   ar
     8    34    35   ar
     9    35    36   ar
    10    36    37   ar
    11    37    38   ar
    12    26    27   am
    13    27     1    1
    14     1     2    1
    15     2     3    1
    16     3     4    1
    17     4     6    1
    18     6     7   ar
    19     7     8    1
    20     7     9   ar
    21     9    10   ar
    22    10    11   ar
    23    11    12    2
    24    11    13   ar
    25    13    19    1
    26    19    20   ar
    27    19    21   ar
    28    13    14   ar
    29    14    15   ar
    30    15    22    1
    31    22    23    1
    32    23    24    1
    33    15    16   ar
    34    16    17   ar
    35    17    18    1
    36     4     5    1
    37    38    30   ar
    38     5     1    1
    39    38    33   ar
    40    17     6   ar
    41    16    10   ar
    42    24    22    1
    43    27    28    1
@<TRIPOS>MOLECULE
*****
 38 43 0 0 0
SMALL
GASTEIGER

@<TRIPOS>ATOM
      1 C         143.4519  141.7313  160.5460 C.3     1  UNL1        0.0930
      2 C         143.9422  140.3481  160.8564 C.3     1  UNL1        0.0427
      3 C         143.8213  140.1345  162.3362 C.3     1  UNL1        0.0927
      4 N         143.2562  141.3858  162.9404 N.pl3   1  UNL1       -0.3033
      5 C         143.0279  142.3726  161.8340 C.3     1  UNL1        0.1104
      6 C         142.9696  141.6107  164.3955 C.ar    1  UNL1        0.0878
      7 C         143.9310  142.3973  165.2364 C.ar    1  UNL1        0.1543
      8 F         145.1789  142.9590  164.6222 F       1  UNL1       -0.2028
      9 C         143.6444  142.6222  166.6915 C.ar    1  UNL1        0.0356
     10 C         142.3965  142.0605  167.3057 C.ar    1  UNL1        0.0580
     11 C         142.1100  142.2854  168.7608 C.ar    1  UNL1        0.1996
     12 O         143.0713  143.0720  169.6017 O.2     1  UNL1       -0.2864
     13 C         140.8621  141.7237  169.3750 C.ar    1  UNL1        0.0701
     14 C         139.9008  140.9371  168.5341 C.ar    1  UNL1        0.0801
     15 N         140.1873  140.7122  167.0791 N.ar    1  UNL1       -0.3270
     16 C         141.4352  141.2739  166.4648 C.ar    1  UNL1        0.0750
     17 C         141.7218  141.0490  165.0098 C.ar    1  UNL1        0.0890
     18 CL        140.7604  140.2624  164.1688 Cl      1  UNL1       -0.0794
     19 C         140.5756  141.9486  170.8301 C.2     1  UNL1        0.0774
     20 O         139.5553  142.9669  171.2450 O.co2   1  UNL1       -0.5444
     21 O         141.3093  141.1552  171.8704 O.co2   1  UNL1       -0.5444
     22 C         139.2260  139.9256  166.2382 C.3     1  UNL1        0.0857
     23 C         138.0705  139.8820  165.2827 C.3     1  UNL1        0.0245
     24 C         138.7163  138.6068  165.7373 C.3     1  UNL1        0.0245
     25 O         141.0390  141.3358  158.8078 O.2     1  UNL1       -0.2730
     26 C         142.1890  142.1647  158.3173 C.2     1  UNL1        0.2456
     27 N         143.3955  142.3624  159.1864 N.am    1  UNL1       -0.3026
     28 H         144.1503  142.9064  158.8645 H       1  UNL1        0.1495
     29 C         142.1326  142.7958  156.9577 C.3     1  UNL1        0.1929
     30 N         141.3281  144.0434  156.7427 N.ar    1  UNL1       -0.3004
     31 C         141.6842  145.4169  157.2291 C.ar    1  UNL1        0.1789
     32 N         140.6024  146.3589  156.7906 N.ar    1  UNL1       -0.2239
     33 C         139.5777  145.5676  156.0332 C.ar    1  UNL1        0.0988
     34 C         138.2941  145.9653  155.3667 C.ar    1  UNL1        0.0206
     35 C         137.4590  144.9319  154.6706 C.ar    1  UNL1        0.0016
     36 C         137.9075  143.5007  154.6409 C.ar    1  UNL1        0.0016
     37 C         139.1911  143.1031  155.3075 C.ar    1  UNL1        0.0188
     38 C         140.0261  144.1365  156.0036 C.ar    1  UNL1        0.0793
@<TRIPOS>UNITY_ATOM_ATTR
20 1
charge -1
@<TRIPOS>BOND
     1    25    26    2
     2    26    29    1
     3    29    30    1
     4    30    31   ar
     5    31    32   ar
     6    32    33   ar
     7    33    34   ar
     8    34    35   ar
     9    35    36   ar
    10    36    37   ar
    11    37    38   ar
    12    26    27   am
    13    27     1    1
    14     1     2    1
    15     2     3    1
    16     3     4    1
    17     4     6    1
    18     6     7   ar
    19     7     8    1
    20     7     9   ar
    21     9    10   ar
    22    10    11   ar
    23    11    12    2
    24    11    13   ar
    25    13    19    1
    26    19    20   ar
    27    19    21   ar
    28    13    14   ar
    29    14    15   ar
    30    15    22    1
    31    22    23    1
    32    23    24    1
    33    15    16   ar
    34    16    17   ar
    35    17    18    1
    36     4     5    1
    37    38    30   ar
    38     5     1    1
    39    38    33   ar
    40    17     6   ar
    41    16    10   ar
    42    24    22    1
    43    27    28    1
@<TRIPOS>MOLECULE
*****
 38 43 0 0 0
SMALL
GASTEIGER

@<TRIPOS>ATOM
      1 C         140.7902  143.4186  158.9466 C.3     1  UNL1        0.0930
      2 C         142.2720  143.2944  159.1440 C.3     1  UNL1        0.0427
      3 C         142.5242  143.0100  160.5950 C.3     1  UNL1        0.0927
      4 N         141.1983  142.9583  161.2944 N.pl3   1  UNL1       -0.3033
      5 C         140.1266  143.2108  160.2757 C.3     1  UNL1        0.1104
      6 C         140.9819  142.6995  162.7561 C.ar    1  UNL1        0.0878
      7 C         141.0158  143.8378  163.7323 C.ar    1  UNL1        0.1543
      8 F         141.2661  145.2349  163.2470 F       1  UNL1       -0.2028
      9 C         140.7995  143.5790  165.1939 C.ar    1  UNL1        0.0356
     10 C         140.5492  142.1819  165.6792 C.ar    1  UNL1        0.0580
     11 C         140.3328  141.9232  167.1408 C.ar    1  UNL1        0.1996
     12 O         140.3667  143.0614  168.1171 O.2     1  UNL1       -0.2864
     13 C         140.0826  140.5261  167.6261 C.ar    1  UNL1        0.0701
     14 C         140.0487  139.3877  166.6498 C.ar    1  UNL1        0.0801
     15 N         140.2650  139.6465  165.1882 N.ar    1  UNL1       -0.3270
     16 C         140.5153  141.0436  164.7029 C.ar    1  UNL1        0.0750
     17 C         140.7316  141.3024  163.2414 C.ar    1  UNL1        0.0890
     18 CL        140.6978  140.1641  162.2650 Cl      1  UNL1       -0.0794
     19 C         139.8662  140.2673  169.0877 C.2     1  UNL1        0.0774
     20 O         138.5096  139.8650  169.5853 O.co2   1  UNL1       -0.5444
     21 O         141.0066  140.4107  170.0516 O.co2   1  UNL1       -0.5444
     22 C         140.2311  138.5083  164.2120 C.3     1  UNL1        0.0857
     23 C         139.4675  137.6340  163.2620 C.3     1  UNL1        0.0245
     24 C         140.9360  137.4109  163.4710 C.3     1  UNL1        0.0245
     25 O         140.6053  146.2332  157.9249 O.2     1  UNL1       -0.2730
     26 C         140.0018  145.1082  157.1373 C.2     1  UNL1        0.2456
     27 N         140.0943  143.7009  157.6482 N.am    1  UNL1       -0.3026
     28 H         139.6982  142.9625  157.1313 H       1  UNL1        0.1495
     29 C         139.3059  145.3905  155.8388 C.3     1  UNL1        0.1929
     30 N         139.7289  146.5598  154.9999 N.ar    1  UNL1       -0.3004
     31 C         140.5903  146.4993  153.7734 C.ar    1  UNL1        0.1789
     32 N         140.7585  147.8970  153.2557 N.ar    1  UNL1       -0.2239
     33 C         140.0011  148.8213  154.1622 C.ar    1  UNL1        0.0988
     34 C         139.8086  150.3089  154.1454 C.ar    1  UNL1        0.0206
     35 C         138.9798  150.9699  155.2065 C.ar    1  UNL1        0.0016
     36 C         138.3434  150.1434  156.2845 C.ar    1  UNL1        0.0016
     37 C         138.5359  148.6559  156.3014 C.ar    1  UNL1        0.0188
     38 C         139.3647  147.9949  155.2402 C.ar    1  UNL1        0.0793
@<TRIPOS>UNITY_ATOM_ATTR
20 1
charge -1
@<TRIPOS>BOND
     1    25    26    2
     2    26    29    1
     3    29    30    1
     4    30    31   ar
     5    31    32   ar
     6    32    33   ar
     7    33    34   ar
     8    34    35   ar
     9    35    36   ar
    10    36    37   ar
    11    37    38   ar
    12    26    27   am
    13    27     1    1
    14     1     2    1
    15     2     3    1
    16     3     4    1
    17     4     6    1
    18     6     7   ar
    19     7     8    1
    20     7     9   ar
    21     9    10   ar
    22    10    11   ar
    23    11    12    2
    24    11    13   ar
    25    13    19    1
    26    19    20   ar
    27    19    21   ar
    28    13    14   ar
    29    14    15   ar
    30    15    22    1
    31    22    23    1
    32    23    24    1
    33    15    16   ar
    34    16    17   ar
    35    17    18    1
    36     4     5    1
    37    38    30   ar
    38     5     1    1
    39    38    33   ar
    40    17     6   ar
    41    16    10   ar
    42    24    22    1
    43    27    28    1
@<TRIPOS>MOLECULE
*****
 38 43 0 0 0
SMALL
GASTEIGER

@<TRIPOS>ATOM
      1 C         143.6203  140.6151  160.1765 C.3     1  UNL1        0.0930
      2 C         144.3896  141.8422  160.5674 C.3     1  UNL1        0.0427
      3 C         144.2967  141.9925  162.0570 C.3     1  UNL1        0.0927
      4 N         143.4701  140.8584  162.5867 N.pl3   1  UNL1       -0.3033
      5 C         143.0521  140.0072  161.4245 C.3     1  UNL1        0.1104
      6 C         143.1225  140.6178  164.0259 C.ar    1  UNL1        0.0878
      7 C         143.9305  139.6523  164.8413 C.ar    1  UNL1        0.1543
      8 F         145.0861  138.9274  164.2176 F       1  UNL1       -0.2028
      9 C         143.5828  139.4117  166.2805 C.ar    1  UNL1        0.0356
     10 C         142.4272  140.1366  166.9042 C.ar    1  UNL1        0.0580
     11 C         142.0796  139.8960  168.3435 C.ar    1  UNL1        0.1996
     12 O         142.8876  138.9305  169.1589 O.2     1  UNL1       -0.2864
     13 C         140.9240  140.6209  168.9672 C.ar    1  UNL1        0.0701
     14 C         140.1160  141.5864  168.1517 C.ar    1  UNL1        0.0801
     15 N         140.4636  141.8270  166.7126 N.ar    1  UNL1       -0.3270
     16 C         141.6192  141.1021  166.0888 C.ar    1  UNL1        0.0750
     17 C         141.9669  141.3427  164.6497 C.ar    1  UNL1        0.0890
     18 CL        141.1589  142.3083  163.8342 Cl      1  UNL1       -0.0794
     19 C         140.5764  140.3803  170.4064 C.2     1  UNL1        0.0774
     20 O         139.3258  139.6318  170.7609 O.co2   1  UNL1       -0.5444
     21 O         141.4794  140.8883  171.4912 O.co2   1  UNL1       -0.5444
     22 C         139.6557  142.7925  165.8972 C.3     1  UNL1        0.0857
     23 C         139.3695  144.1966  165.4536 C.3     1  UNL1        0.0245
     24 C         138.5423  143.0608  164.9285 C.3     1  UNL1        0.0245
     25 O         141.3960  141.6445  158.4466 O.2     1  UNL1       -0.2730
     26 C         142.3372  140.6032  157.9174 C.2     1  UNL1        0.2456
     27 N         143.4494  140.0886  158.7824 N.am    1  UNL1       -0.3026
     28 H         144.0672  139.4052  158.4352 H       1  UNL1        0.1495
     29 C         142.1663  140.0767  156.5233 C.3     1  UNL1        0.1929
     30 N         141.4990  138.7523  156.2984 N.ar    1  UNL1       -0.3004
     31 C         140.0234  138.4882  156.3515 C.ar    1  UNL1        0.1789
     32 N         139.8025  137.0321  156.0668 N.ar    1  UNL1       -0.2239
     33 C         141.1416  136.3963  155.8378 C.ar    1  UNL1        0.0988
     34 C         141.5418  134.9866  155.5174 C.ar    1  UNL1        0.0206
     35 C         142.9903  134.6400  155.3402 C.ar    1  UNL1        0.0016
     36 C         144.0388  135.7032  155.4833 C.ar    1  UNL1        0.0016
     37 C         143.6387  137.1129  155.8037 C.ar    1  UNL1        0.0188
     38 C         142.1901  137.4594  155.9809 C.ar    1  UNL1        0.0793
@<TRIPOS>UNITY_ATOM_ATTR
20 1
charge -1
@<TRIPOS>BOND
     1    25    26    2
     2    26    29    1
     3    29    30    1
     4    30    31   ar
     5    31    32   ar
     6    32    33   ar
     7    33    34   ar
     8    34    35   ar
     9    35    36   ar
    10    36    37   ar
    11    37    38   ar
    12    26    27   am
    13    27     1    1
    14     1     2    1
    15     2     3    1
    16     3     4    1
    17     4     6    1
    18     6     7   ar
    19     7     8    1
    20     7     9   ar
    21     9    10   ar
    22    10    11   ar
    23    11    12    2
    24    11    13   ar
    25    13    19    1
    26    19    20   ar
    27    19    21   ar
    28    13    14   ar
    29    14    15   ar
    30    15    22    1
    31    22    23    1
    32    23    24    1
    33    15    16   ar
    34    16    17   ar
    35    17    18    1
    36     4     5    1
    37    38    30   ar
    38     5     1    1
    39    38    33   ar
    40    17     6   ar
    41    16    10   ar
    42    24    22    1
    43    27    28    1
