@<TRIPOS>MOLECULE
*****
 31 35 0 0 0
SMALL
GASTEIGER

@<TRIPOS>ATOM
      1 C         141.0517  142.4094  163.4787 C.ar    1  UNL1       -0.0035
      2 C         141.5554  143.0542  164.7359 C.ar    1  UNL1        0.0757
      3 N         141.2548  142.1337  165.8814 N.ar    1  UNL1       -0.3052
      4 C         140.5654  140.9200  165.3323 C.ar    1  UNL1        0.0638
      5 C         140.0357  139.6817  165.9926 C.ar    1  UNL1        0.0184
      6 C         139.3804  138.6138  165.1678 C.ar    1  UNL1        0.0129
      7 C         139.2549  138.7842  163.6829 C.ar    1  UNL1        0.0578
      8 CL        138.5996  137.7162  162.8581 Cl      1  UNL1       -0.0822
      9 C         139.7846  140.0225  163.0226 C.ar    1  UNL1        0.0126
     10 C         140.4398  141.0904  163.8473 C.ar    1  UNL1        0.0144
     11 N         141.3279  144.1298  159.3297 N.3     1  UNL1       -0.2712
     12 C         142.5519  143.5715  159.9931 C.3     1  UNL1        0.0725
     13 C         142.4599  142.9981  161.3761 C.3     1  UNL1        0.0218
     14 C         141.1437  142.9829  162.0957 C.3     1  UNL1        0.0266
     15 C         139.9198  143.5411  161.4323 C.3     1  UNL1        0.0218
     16 C         140.0118  144.1146  160.0493 C.3     1  UNL1        0.0725
     17 C         141.4199  144.7033  157.9467 C.3     1  UNL1        0.0939
     18 C         140.5714  145.8798  157.5646 C.3     1  UNL1        0.1123
     19 O         139.1496  148.3044  155.9065 O.2     1  UNL1       -0.2526
     20 C         138.8502  146.8419  155.7600 C.2     1  UNL1        0.3041
     21 N         137.8447  146.2371  154.8255 N.am    1  UNL1       -0.2870
     22 C         137.8768  144.7489  155.0101 C.3     1  UNL1        0.1124
     23 C         138.9021  144.4339  156.0587 C.3     1  UNL1        0.1162
     24 N         139.5037  145.7274  156.5221 N.am    1  UNL1       -0.2610
     25 H         137.2654  146.7303  154.2007 H       1  UNL1        0.1510
     26 C         141.5856  142.3831  167.3231 C.ar    1  UNL1        0.0640
     27 C         142.9754  142.1311  167.8282 C.ar    1  UNL1        0.0175
     28 C         143.3062  142.3805  169.2699 C.ar    1  UNL1        0.0015
     29 C         142.2473  142.8819  170.2064 C.ar    1  UNL1        0.0001
     30 C         140.8575  143.1340  169.7014 C.ar    1  UNL1        0.0015
     31 C         140.5268  142.8846  168.2597 C.ar    1  UNL1        0.0175
@<TRIPOS>BOND
     1    19    20    2
     2    20    21   am
     3    21    22    1
     4    22    23    1
     5    23    24    1
     6    24    18    1
     7    18    17    1
     8    17    11    1
     9    11    12    1
    10    12    13    1
    11    13    14    1
    12    14     1    1
    13     1     2   ar
    14     2     3   ar
    15     3    26    1
    16    26    27   ar
    17    27    28   ar
    18    28    29   ar
    19    29    30   ar
    20    30    31   ar
    21     3     4   ar
    22     4     5   ar
    23     5     6   ar
    24     6     7   ar
    25     7     8    1
    26     7     9   ar
    27     9    10   ar
    28    14    15    1
    29    15    16    1
    30    24    20   am
    31    16    11    1
    32    10     1   ar
    33    31    26   ar
    34    10     4   ar
    35    21    25    1
@<TRIPOS>MOLECULE
*****
 31 35 0 0 0
SMALL
GASTEIGER

@<TRIPOS>ATOM
      1 C         142.0290  140.9997  163.5666 C.ar    1  UNL1       -0.0035
      2 C         142.6715  140.4839  164.8201 C.ar    1  UNL1        0.0757
      3 N         142.0693  141.2140  165.9838 N.ar    1  UNL1       -0.3052
      4 C         141.0547  142.1811  165.4496 C.ar    1  UNL1        0.0638
      5 C         140.1503  143.1651  166.1304 C.ar    1  UNL1        0.0184
      6 C         139.2210  144.0167  165.3173 C.ar    1  UNL1        0.0129
      7 C         139.1961  143.8842  163.8234 C.ar    1  UNL1        0.0578
      8 CL        138.2667  144.7359  163.0103 Cl      1  UNL1       -0.0822
      9 C         140.1005  142.9002  163.1425 C.ar    1  UNL1        0.0126
     10 C         141.0298  142.0486  163.9556 C.ar    1  UNL1        0.0144
     11 N         142.9393  139.6392  159.3748 N.3     1  UNL1       -0.2712
     12 C         141.7922  139.0330  160.1276 C.3     1  UNL1        0.0725
     13 C         141.4888  139.4864  161.5249 C.3     1  UNL1        0.0218
     14 C         142.3325  140.5462  162.1694 C.3     1  UNL1        0.0266
     15 C         143.4795  141.1523  161.4166 C.3     1  UNL1        0.0218
     16 C         143.7830  140.6988  160.0193 C.3     1  UNL1        0.0725
     17 C         143.2428  139.1857  157.9776 C.3     1  UNL1        0.0939
     18 C         142.3631  138.1699  157.3110 C.3     1  UNL1        0.1123
     19 O         144.9818  138.2815  155.3670 O.2     1  UNL1       -0.2526
     20 C         144.1788  137.0577  155.6952 C.2     1  UNL1        0.3041
     21 N         144.4386  135.6704  155.1874 N.am    1  UNL1       -0.2870
     22 C         143.3955  134.7617  155.7671 C.3     1  UNL1        0.1124
     23 C         142.4910  135.5875  156.6332 C.3     1  UNL1        0.1162
     24 N         142.9751  137.0064  156.5887 N.am    1  UNL1       -0.2610
     25 H         145.1660  135.4032  154.5802 H       1  UNL1        0.1510
     26 C         142.4201  141.0125  167.4282 C.ar    1  UNL1        0.0640
     27 C         143.0557  142.1252  168.2079 C.ar    1  UNL1        0.0175
     28 C         143.4065  141.9237  169.6524 C.ar    1  UNL1        0.0015
     29 C         143.1218  140.6096  170.3171 C.ar    1  UNL1        0.0001
     30 C         142.4862  139.4969  169.5373 C.ar    1  UNL1        0.0015
     31 C         142.1354  139.6984  168.0929 C.ar    1  UNL1        0.0175
@<TRIPOS>BOND
     1    19    20    2
     2    20    21   am
     3    21    22    1
     4    22    23    1
     5    23    24    1
     6    24    18    1
     7    18    17    1
     8    17    11    1
     9    11    12    1
    10    12    13    1
    11    13    14    1
    12    14     1    1
    13     1     2   ar
    14     2     3   ar
    15     3    26    1
    16    26    27   ar
    17    27    28   ar
    18    28    29   ar
    19    29    30   ar
    20    30    31   ar
    21     3     4   ar
    22     4     5   ar
    23     5     6   ar
    24     6     7   ar
    25     7     8    1
    26     7     9   ar
    27     9    10   ar
    28    14    15    1
    29    15    16    1
    30    24    20   am
    31    16    11    1
    32    10     1   ar
    33    31    26   ar
    34    10     4   ar
    35    21    25    1
@<TRIPOS>MOLECULE
*****
 31 35 0 0 0
SMALL
GASTEIGER

@<TRIPOS>ATOM
      1 C         140.6312  140.3853  163.3888 C.ar    1  UNL1       -0.0035
      2 C         140.9010  139.6509  164.6686 C.ar    1  UNL1        0.0757
      3 N         140.6909  140.6073  165.8048 N.ar    1  UNL1       -0.3052
      4 C         140.2913  141.9328  165.2273 C.ar    1  UNL1        0.0638
      5 C         139.9563  143.2469  165.8683 C.ar    1  UNL1        0.0184
      6 C         139.5843  144.4238  165.0159 C.ar    1  UNL1        0.0129
      7 C         139.5474  144.2865  163.5227 C.ar    1  UNL1        0.0578
      8 CL        139.1754  145.4635  162.6703 Cl      1  UNL1       -0.0822
      9 C         139.8824  142.9724  162.8817 C.ar    1  UNL1        0.0126
     10 C         140.2544  141.7955  163.7341 C.ar    1  UNL1        0.0144
     11 N         140.9042  138.6605  159.2413 N.3     1  UNL1       -0.2712
     12 C         142.1519  139.0650  159.9690 C.3     1  UNL1        0.0725
     13 C         142.0610  139.6399  161.3515 C.3     1  UNL1        0.0218
     14 C         140.7221  139.8104  162.0063 C.3     1  UNL1        0.0266
     15 C         139.4745  139.4059  161.2786 C.3     1  UNL1        0.0218
     16 C         139.5655  138.8310  159.8961 C.3     1  UNL1        0.0725
     17 C         140.9952  138.0856  157.8589 C.3     1  UNL1        0.0939
     18 C         142.2782  138.1852  157.0881 C.3     1  UNL1        0.1123
     19 O         145.1416  138.0117  155.5325 O.2     1  UNL1       -0.2526
     20 C         144.1532  136.8941  155.6873 C.2     1  UNL1        0.3041
     21 N         144.3074  135.5005  155.1543 N.am    1  UNL1       -0.2870
     22 C         143.0866  134.7190  155.5398 C.3     1  UNL1        0.1124
     23 C         142.1778  135.6296  156.3112 C.3     1  UNL1        0.1162
     24 N         142.8370  136.9738  156.4023 N.am    1  UNL1       -0.2610
     25 H         145.0752  135.1588  154.6414 H       1  UNL1        0.1510
     26 C         140.8522  140.2934  167.2627 C.ar    1  UNL1        0.0640
     27 C         142.1818  139.8413  167.7900 C.ar    1  UNL1        0.0175
     28 C         142.3431  139.5274  169.2479 C.ar    1  UNL1        0.0015
     29 C         141.1749  139.6656  170.1786 C.ar    1  UNL1        0.0001
     30 C         139.8454  140.1177  169.6513 C.ar    1  UNL1        0.0015
     31 C         139.6841  140.4316  168.1934 C.ar    1  UNL1        0.0175
@<TRIPOS>BOND
     1    19    20    2
     2    20    21   am
     3    21    22    1
     4    22    23    1
     5    23    24    1
     6    24    18    1
     7    18    17    1
     8    17    11    1
     9    11    12    1
    10    12    13    1
    11    13    14    1
    12    14     1    1
    13     1     2   ar
    14     2     3   ar
    15     3    26    1
    16    26    27   ar
    17    27    28   ar
    18    28    29   ar
    19    29    30   ar
    20    30    31   ar
    21     3     4   ar
    22     4     5   ar
    23     5     6   ar
    24     6     7   ar
    25     7     8    1
    26     7     9   ar
    27     9    10   ar
    28    14    15    1
    29    15    16    1
    30    24    20   am
    31    16    11    1
    32    10     1   ar
    33    31    26   ar
    34    10     4   ar
    35    21    25    1
@<TRIPOS>MOLECULE
*****
 31 35 0 0 0
SMALL
GASTEIGER

@<TRIPOS>ATOM
      1 C         140.7924  142.5230  163.7414 C.ar    1  UNL1       -0.0035
      2 C         141.3252  143.1746  164.9830 C.ar    1  UNL1        0.0757
      3 N         141.1947  142.1961  166.1124 N.ar    1  UNL1       -0.3052
      4 C         140.5812  140.9398  165.5688 C.ar    1  UNL1        0.0638
      5 C         140.2169  139.6381  166.2189 C.ar    1  UNL1        0.0184
      6 C         139.6039  138.5384  165.4035 C.ar    1  UNL1        0.0129
      7 C         139.3552  138.7404  163.9381 C.ar    1  UNL1        0.0578
      8 CL        138.7422  137.6406  163.1228 Cl      1  UNL1       -0.0822
      9 C         139.7196  140.0422  163.2881 C.ar    1  UNL1        0.0126
     10 C         140.3326  141.1419  164.1034 C.ar    1  UNL1        0.0144
     11 N         140.6061  144.3848  159.6488 N.3     1  UNL1       -0.2712
     12 C         141.3445  143.0953  159.8532 C.3     1  UNL1        0.0725
     13 C         141.4066  142.4747  161.2174 C.3     1  UNL1        0.0218
     14 C         140.7303  143.1437  162.3772 C.3     1  UNL1        0.0266
     15 C         139.9919  144.4331  162.1728 C.3     1  UNL1        0.0218
     16 C         139.9298  145.0538  160.8086 C.3     1  UNL1        0.0725
     17 C         140.5440  145.0055  158.2846 C.3     1  UNL1        0.0939
     18 C         140.3271  144.1424  157.0772 C.3     1  UNL1        0.1123
     19 O         138.3128  142.0324  158.5400 O.2     1  UNL1       -0.2526
     20 C         138.0075  142.8346  157.3099 C.2     1  UNL1        0.3041
     21 N         136.7227  142.8078  156.5362 N.am    1  UNL1       -0.2870
     22 C         136.8545  143.7610  155.3857 C.3     1  UNL1        0.1124
     23 C         138.2208  144.3770  155.4482 C.3     1  UNL1        0.1162
     24 N         138.9333  143.8044  156.6375 N.am    1  UNL1       -0.2610
     25 H         135.9318  142.2605  156.7466 H       1  UNL1        0.1510
     26 C         141.6056  142.4323  167.5356 C.ar    1  UNL1        0.0640
     27 C         143.0000  142.1011  167.9785 C.ar    1  UNL1        0.0175
     28 C         143.4108  142.3374  169.4017 C.ar    1  UNL1        0.0015
     29 C         142.4273  142.9048  170.3819 C.ar    1  UNL1        0.0001
     30 C         141.0331  143.2360  169.9390 C.ar    1  UNL1        0.0015
     31 C         140.6222  142.9997  168.5158 C.ar    1  UNL1        0.0175
@<TRIPOS>BOND
     1    19    20    2
     2    20    21   am
     3    21    22    1
     4    22    23    1
     5    23    24    1
     6    24    18    1
     7    18    17    1
     8    17    11    1
     9    11    12    1
    10    12    13    1
    11    13    14    1
    12    14     1    1
    13     1     2   ar
    14     2     3   ar
    15     3    26    1
    16    26    27   ar
    17    27    28   ar
    18    28    29   ar
    19    29    30   ar
    20    30    31   ar
    21     3     4   ar
    22     4     5   ar
    23     5     6   ar
    24     6     7   ar
    25     7     8    1
    26     7     9   ar
    27     9    10   ar
    28    14    15    1
    29    15    16    1
    30    24    20   am
    31    16    11    1
    32    10     1   ar
    33    31    26   ar
    34    10     4   ar
    35    21    25    1
@<TRIPOS>MOLECULE
*****
 31 35 0 0 0
SMALL
GASTEIGER

@<TRIPOS>ATOM
      1 C         141.8132  140.8973  163.5807 C.ar    1  UNL1       -0.0035
      2 C         142.5062  140.4454  164.8319 C.ar    1  UNL1        0.0757
      3 N         141.9534  141.2372  165.9797 N.ar    1  UNL1       -0.3052
      4 C         140.9188  142.1785  165.4378 C.ar    1  UNL1        0.0638
      5 C         140.0444  143.1997  166.1030 C.ar    1  UNL1        0.0184
      6 C         139.0834  144.0109  165.2855 C.ar    1  UNL1        0.0129
      7 C         138.9967  143.8008  163.8028 C.ar    1  UNL1        0.0578
      8 CL        138.0356  144.6120  162.9852 Cl      1  UNL1       -0.0822
      9 C         139.8711  142.7795  163.1376 C.ar    1  UNL1        0.0126
     10 C         140.8322  141.9684  163.9552 C.ar    1  UNL1        0.0144
     11 N         142.5483  139.3170  159.4318 N.3     1  UNL1       -0.2712
     12 C         141.6604  138.5616  160.3757 C.3     1  UNL1        0.0725
     13 C         141.4154  139.0883  161.7587 C.3     1  UNL1        0.0218
     14 C         142.0583  140.3706  162.1977 C.3     1  UNL1        0.0266
     15 C         142.9461  141.1259  161.2538 C.3     1  UNL1        0.0218
     16 C         143.1911  140.5992  159.8709 C.3     1  UNL1        0.0725
     17 C         142.7933  138.7903  158.0489 C.3     1  UNL1        0.0939
     18 C         142.6395  137.3253  157.7661 C.3     1  UNL1        0.1123
     19 O         139.4813  138.1394  157.6567 O.2     1  UNL1       -0.2526
     20 C         140.1920  137.2331  156.6956 C.2     1  UNL1        0.3041
     21 N         139.5758  136.5420  155.5155 N.am    1  UNL1       -0.2870
     22 C         140.6465  135.7406  154.8366 C.3     1  UNL1        0.1124
     23 C         141.9246  135.9365  155.5970 C.3     1  UNL1        0.1162
     24 N         141.6436  136.8589  156.7459 N.am    1  UNL1       -0.2610
     25 H         138.6338  136.6035  155.2358 H       1  UNL1        0.1510
     26 C         142.3633  141.1101  167.4170 C.ar    1  UNL1        0.0640
     27 C         143.0521  142.2518  168.1042 C.ar    1  UNL1        0.0175
     28 C         143.4620  142.1247  169.5416 C.ar    1  UNL1        0.0015
     29 C         143.1831  140.8560  170.2916 C.ar    1  UNL1        0.0001
     30 C         142.4943  139.7144  169.6044 C.ar    1  UNL1        0.0015
     31 C         142.0844  139.8415  168.1671 C.ar    1  UNL1        0.0175
@<TRIPOS>BOND
     1    19    20    2
     2    20    21   am
     3    21    22    1
     4    22    23    1
     5    23    24    1
     6    24    18    1
     7    18    17    1
     8    17    11    1
     9    11    12    1
    10    12    13    1
    11    13    14    1
    12    14     1    1
    13     1     2   ar
    14     2     3   ar
    15     3    26    1
    16    26    27   ar
    17    27    28   ar
    18    28    29   ar
    19    29    30   ar
    20    30    31   ar
    21     3     4   ar
    22     4     5   ar
    23     5     6   ar
    24     6     7   ar
    25     7     8    1
    26     7     9   ar
    27     9    10   ar
    28    14    15    1
    29    15    16    1
    30    24    20   am
    31    16    11    1
    32    10     1   ar
    33    31    26   ar
    34    10     4   ar
    35    21    25    1
@<TRIPOS>MOLECULE
*****
 31 35 0 0 0
SMALL
GASTEIGER

@<TRIPOS>ATOM
      1 C         140.2264  140.5062  162.8653 C.ar    1  UNL1       -0.0035
      2 C         140.4759  139.3280  161.9711 C.ar    1  UNL1        0.0757
      3 N         140.5989  139.8321  160.5637 N.ar    1  UNL1       -0.3052
      4 C         140.4254  141.3219  160.5881 C.ar    1  UNL1        0.0638
      5 C         140.4474  142.3529  159.4988 C.ar    1  UNL1        0.0184
      6 C         140.2391  143.8004  159.8320 C.ar    1  UNL1        0.0129
      7 C         140.0089  144.2170  161.2545 C.ar    1  UNL1        0.0578
      8 CL        139.8006  145.6647  161.5877 Cl      1  UNL1       -0.0822
      9 C         139.9870  143.1861  162.3438 C.ar    1  UNL1        0.0126
     10 C         140.1952  141.7385  162.0106 C.ar    1  UNL1        0.0144
     11 N         139.6693  140.3682  167.3286 N.3     1  UNL1       -0.2712
     12 C         139.1547  139.2483  166.4736 C.3     1  UNL1        0.0725
     13 C         139.3404  139.2943  164.9858 C.3     1  UNL1        0.0218
     14 C         140.0408  140.4602  164.3530 C.3     1  UNL1        0.0266
     15 C         140.5553  141.5800  165.2081 C.3     1  UNL1        0.0218
     16 C         140.3696  141.5340  166.6958 C.3     1  UNL1        0.0725
     17 C         139.4836  140.3222  168.8163 C.3     1  UNL1        0.0939
     18 C         140.6414  139.9799  169.7064 C.3     1  UNL1        0.1123
     19 O         140.4716  142.2178  172.0755 O.2     1  UNL1       -0.2526
     20 C         141.6027  142.0446  171.1057 C.2     1  UNL1        0.3041
     21 N         142.8544  142.8697  171.0545 N.am    1  UNL1       -0.2870
     22 C         143.7059  142.3510  169.9340 C.3     1  UNL1        0.1124
     23 C         142.9807  141.2054  169.2926 C.3     1  UNL1        0.1162
     24 N         141.6808  141.0160  170.0167 N.am    1  UNL1       -0.2610
     25 H         143.0777  143.6200  171.6515 H       1  UNL1        0.1510
     26 C         140.8511  138.9937  159.3457 C.ar    1  UNL1        0.0640
     27 C         139.7225  138.6674  158.4130 C.ar    1  UNL1        0.0175
     28 C         139.9747  137.8290  157.1950 C.ar    1  UNL1        0.0015
     29 C         141.3554  137.3169  156.9097 C.ar    1  UNL1        0.0001
     30 C         142.4839  137.6432  157.8424 C.ar    1  UNL1        0.0015
     31 C         142.2317  138.4816  159.0604 C.ar    1  UNL1        0.0175
@<TRIPOS>BOND
     1    19    20    2
     2    20    21   am
     3    21    22    1
     4    22    23    1
     5    23    24    1
     6    24    18    1
     7    18    17    1
     8    17    11    1
     9    11    12    1
    10    12    13    1
    11    13    14    1
    12    14     1    1
    13     1     2   ar
    14     2     3   ar
    15     3    26    1
    16    26    27   ar
    17    27    28   ar
    18    28    29   ar
    19    29    30   ar
    20    30    31   ar
    21     3     4   ar
    22     4     5   ar
    23     5     6   ar
    24     6     7   ar
    25     7     8    1
    26     7     9   ar
    27     9    10   ar
    28    14    15    1
    29    15    16    1
    30    24    20   am
    31    16    11    1
    32    10     1   ar
    33    31    26   ar
    34    10     4   ar
    35    21    25    1
@<TRIPOS>MOLECULE
*****
 31 35 0 0 0
SMALL
GASTEIGER

@<TRIPOS>ATOM
      1 C         144.8514  142.0095  157.9050 C.ar    1  UNL1       -0.0035
      2 C         146.0744  142.5117  157.1964 C.ar    1  UNL1        0.0757
      3 N         146.3888  141.5581  156.0821 N.ar    1  UNL1       -0.3052
      4 C         145.3601  140.4666  156.1019 C.ar    1  UNL1        0.0638
      5 C         145.1659  139.2546  155.2397 C.ar    1  UNL1        0.0184
      6 C         144.0215  138.3217  155.5042 C.ar    1  UNL1        0.0129
      7 C         143.0713  138.6007  156.6308 C.ar    1  UNL1        0.0578
      8 CL        141.9268  137.6678  156.8952 Cl      1  UNL1       -0.0822
      9 C         143.2655  139.8127  157.4930 C.ar    1  UNL1        0.0126
     10 C         144.4099  140.7456  157.2286 C.ar    1  UNL1        0.0144
     11 N         142.8567  143.9537  161.4394 N.3     1  UNL1       -0.2712
     12 C         142.2226  144.0341  160.0824 C.3     1  UNL1        0.0725
     13 C         142.8875  143.3861  158.9042 C.3     1  UNL1        0.0218
     14 C         144.1865  142.6576  159.0831 C.3     1  UNL1        0.0266
     15 C         144.8205  142.5771  160.4401 C.3     1  UNL1        0.0218
     16 C         144.1557  143.2252  161.6182 C.3     1  UNL1        0.0725
     17 C         142.1918  144.6017  162.6175 C.3     1  UNL1        0.0939
     18 C         141.1905  143.8346  163.4293 C.3     1  UNL1        0.1123
     19 O         138.9477  145.7157  161.9870 O.2     1  UNL1       -0.2526
     20 C         138.8861  144.2240  162.1321 C.2     1  UNL1        0.3041
     21 N         137.7828  143.3351  161.6397 N.am    1  UNL1       -0.2870
     22 C         138.1318  141.9211  161.9983 C.3     1  UNL1        0.1124
     23 C         139.4508  141.9361  162.7124 C.3     1  UNL1        0.1162
     24 N         139.9170  143.3593  162.7950 N.am    1  UNL1       -0.2610
     25 H         136.9719  143.6282  161.1646 H       1  UNL1        0.1510
     26 C         147.5313  141.6754  155.1172 C.ar    1  UNL1        0.0640
     27 C         147.2636  141.7470  153.6429 C.ar    1  UNL1        0.0175
     28 C         148.4061  141.8643  152.6781 C.ar    1  UNL1        0.0015
     29 C         149.8162  141.9099  153.1874 C.ar    1  UNL1        0.0001
     30 C         150.0839  141.8383  154.6616 C.ar    1  UNL1        0.0015
     31 C         148.9414  141.7211  155.6264 C.ar    1  UNL1        0.0175
@<TRIPOS>BOND
     1    19    20    2
     2    20    21   am
     3    21    22    1
     4    22    23    1
     5    23    24    1
     6    24    18    1
     7    18    17    1
     8    17    11    1
     9    11    12    1
    10    12    13    1
    11    13    14    1
    12    14     1    1
    13     1     2   ar
    14     2     3   ar
    15     3    26    1
    16    26    27   ar
    17    27    28   ar
    18    28    29   ar
    19    29    30   ar
    20    30    31   ar
    21     3     4   ar
    22     4     5   ar
    23     5     6   ar
    24     6     7   ar
    25     7     8    1
    26     7     9   ar
    27     9    10   ar
    28    14    15    1
    29    15    16    1
    30    24    20   am
    31    16    11    1
    32    10     1   ar
    33    31    26   ar
    34    10     4   ar
    35    21    25    1
@<TRIPOS>MOLECULE
*****
 31 35 0 0 0
SMALL
GASTEIGER

@<TRIPOS>ATOM
      1 C         140.4641  141.1040  161.9883 C.ar    1  UNL1       -0.0035
      2 C         140.2164  140.1657  163.1321 C.ar    1  UNL1        0.0757
      3 N         139.6801  140.9670  164.2811 N.ar    1  UNL1       -0.3052
      4 C         139.5963  142.4005  163.8475 C.ar    1  UNL1        0.0638
      5 C         139.1415  143.6397  164.5599 C.ar    1  UNL1        0.0184
      6 C         139.1712  144.9635  163.8553 C.ar    1  UNL1        0.0129
      7 C         139.6558  145.0482  162.4383 C.ar    1  UNL1        0.0578
      8 CL        139.6855  146.3721  161.7336 Cl      1  UNL1       -0.0822
      9 C         140.1107  143.8091  161.7259 C.ar    1  UNL1        0.0126
     10 C         140.0809  142.4852  162.4305 C.ar    1  UNL1        0.0144
     11 N         142.0742  139.9738  157.9410 N.3     1  UNL1       -0.2712
     12 C         140.9543  139.1834  158.5501 C.3     1  UNL1        0.0725
     13 C         140.4176  139.5602  159.8992 C.3     1  UNL1        0.0218
     14 C         141.0008  140.7273  160.6392 C.3     1  UNL1        0.0266
     15 C         142.1208  141.5176  160.0302 C.3     1  UNL1        0.0218
     16 C         142.6575  141.1409  158.6811 C.3     1  UNL1        0.0725
     17 C         142.6110  139.5971  156.5919 C.3     1  UNL1        0.0939
     18 C         141.9765  138.4801  155.8175 C.3     1  UNL1        0.1123
     19 O         145.1133  137.6675  155.4307 O.2     1  UNL1       -0.2526
     20 C         143.9865  136.7207  155.7206 C.2     1  UNL1        0.3041
     21 N         144.1037  135.2342  155.8837 N.am    1  UNL1       -0.2870
     22 C         142.7344  134.6891  156.1622 C.3     1  UNL1        0.1124
     23 C         141.7709  135.8387  156.1714 C.3     1  UNL1        0.1162
     24 N         142.5447  137.0942  155.8984 N.am    1  UNL1       -0.2610
     25 H         144.9337  134.7087  155.8192 H       1  UNL1        0.1510
     26 C         139.2950  140.4292  165.6274 C.ar    1  UNL1        0.0640
     27 C         140.0055  140.9096  166.8581 C.ar    1  UNL1        0.0175
     28 C         139.6205  140.3718  168.2045 C.ar    1  UNL1        0.0015
     29 C         138.5250  139.3537  168.3201 C.ar    1  UNL1        0.0001
     30 C         137.8146  138.8733  167.0894 C.ar    1  UNL1        0.0015
     31 C         138.1996  139.4111  165.7431 C.ar    1  UNL1        0.0175
@<TRIPOS>BOND
     1    19    20    2
     2    20    21   am
     3    21    22    1
     4    22    23    1
     5    23    24    1
     6    24    18    1
     7    18    17    1
     8    17    11    1
     9    11    12    1
    10    12    13    1
    11    13    14    1
    12    14     1    1
    13     1     2   ar
    14     2     3   ar
    15     3    26    1
    16    26    27   ar
    17    27    28   ar
    18    28    29   ar
    19    29    30   ar
    20    30    31   ar
    21     3     4   ar
    22     4     5   ar
    23     5     6   ar
    24     6     7   ar
    25     7     8    1
    26     7     9   ar
    27     9    10   ar
    28    14    15    1
    29    15    16    1
    30    24    20   am
    31    16    11    1
    32    10     1   ar
    33    31    26   ar
    34    10     4   ar
    35    21    25    1
@<TRIPOS>MOLECULE
*****
 31 35 0 0 0
SMALL
GASTEIGER

@<TRIPOS>ATOM
      1 C         141.8826  140.7646  163.5929 C.ar    1  UNL1       -0.0035
      2 C         142.5356  140.2911  164.8575 C.ar    1  UNL1        0.0757
      3 N         141.9941  141.1083  165.9928 N.ar    1  UNL1       -0.3052
      4 C         141.0066  142.0870  165.4298 C.ar    1  UNL1        0.0638
      5 C         140.1612  143.1441  166.0762 C.ar    1  UNL1        0.0184
      6 C         139.2469  143.9888  165.2392 C.ar    1  UNL1        0.0129
      7 C         139.1780  143.7763  163.7560 C.ar    1  UNL1        0.0578
      8 CL        138.2636  144.6211  162.9190 Cl      1  UNL1       -0.0822
      9 C         140.0233  142.7193  163.1096 C.ar    1  UNL1        0.0126
     10 C         140.9377  141.8746  163.9465 C.ar    1  UNL1        0.0144
     11 N         142.6279  139.1407  159.4627 N.3     1  UNL1       -0.2712
     12 C         143.7840  139.5330  160.3343 C.3     1  UNL1        0.0725
     13 C         143.5356  140.0743  161.7110 C.3     1  UNL1        0.0218
     14 C         142.1310  140.2233  162.2161 C.3     1  UNL1        0.0266
     15 C         140.9751  139.8311  161.3446 C.3     1  UNL1        0.0218
     16 C         141.2235  139.2898  159.9679 C.3     1  UNL1        0.0725
     17 C         142.8763  138.5994  158.0860 C.3     1  UNL1        0.0939
     18 C         143.0185  139.5387  156.9252 C.3     1  UNL1        0.1123
     19 O         142.2831  142.4233  158.2621 O.2     1  UNL1       -0.2526
     20 C         143.5959  142.0486  157.6408 C.2     1  UNL1        0.3041
     21 N         144.8012  142.9339  157.5249 N.am    1  UNL1       -0.2870
     22 C         145.8841  142.1553  156.8388 C.3     1  UNL1        0.1124
     23 C         145.3481  140.7886  156.5306 C.3     1  UNL1        0.1162
     24 N         143.9340  140.7227  157.0262 N.am    1  UNL1       -0.2610
     25 H         144.8695  143.8630  157.8432 H       1  UNL1        0.1510
     26 C         142.3736  140.9710  167.4375 C.ar    1  UNL1        0.0640
     27 C         142.1128  139.6839  168.1624 C.ar    1  UNL1        0.0175
     28 C         142.4923  139.5466  169.6072 C.ar    1  UNL1        0.0015
     29 C         143.1326  140.6964  170.3269 C.ar    1  UNL1        0.0001
     30 C         143.3933  141.9834  169.6020 C.ar    1  UNL1        0.0015
     31 C         143.0138  142.1207  168.1573 C.ar    1  UNL1        0.0175
@<TRIPOS>BOND
     1    19    20    2
     2    20    21   am
     3    21    22    1
     4    22    23    1
     5    23    24    1
     6    24    18    1
     7    18    17    1
     8    17    11    1
     9    11    12    1
    10    12    13    1
    11    13    14    1
    12    14     1    1
    13     1     2   ar
    14     2     3   ar
    15     3    26    1
    16    26    27   ar
    17    27    28   ar
    18    28    29   ar
    19    29    30   ar
    20    30    31   ar
    21     3     4   ar
    22     4     5   ar
    23     5     6   ar
    24     6     7   ar
    25     7     8    1
    26     7     9   ar
    27     9    10   ar
    28    14    15    1
    29    15    16    1
    30    24    20   am
    31    16    11    1
    32    10     1   ar
    33    31    26   ar
    34    10     4   ar
    35    21    25    1
