@<TRIPOS>MOLECULE
*****
 29 32 0 0 0
SMALL
GASTEIGER

@<TRIPOS>ATOM
      1 O         140.4092  141.6495  161.2018 O.2     1  UNL1       -0.2519
      2 C         140.0726  142.7693  160.2622 C.2     1  UNL1        0.3114
      3 N         139.4371  144.0228  160.7863 N.am    1  UNL1       -0.2679
      4 N         140.3717  142.6355  158.7983 N.am    1  UNL1       -0.2446
      5 H         139.2162  144.7577  160.1696 H       1  UNL1        0.1564
      6 C         140.0351  143.7552  157.8587 C.ar    1  UNL1        0.0552
      7 C         140.7372  145.0750  157.9827 C.ar    1  UNL1        0.0155
      8 C         140.4006  146.1947  157.0431 C.ar    1  UNL1        0.0080
      9 C         139.3620  145.9948  155.9795 C.ar    1  UNL1        0.0346
     10 BR        139.0255  147.1145  155.0399 Br      1  UNL1       -0.0490
     11 C         138.6599  144.6750  155.8555 C.ar    1  UNL1        0.0080
     12 C         138.9964  143.5552  156.7951 C.ar    1  UNL1        0.0155
     13 C         139.1380  144.1565  162.2502 C.ar    1  UNL1        0.0516
     14 C         140.1524  144.7688  163.1700 C.ar    1  UNL1        0.0147
     15 C         139.8533  144.9025  164.6337 C.ar    1  UNL1        0.0013
     16 C         138.5399  144.4240  165.1777 C.ar    1  UNL1        0.0001
     17 C         137.5255  143.8118  164.2578 C.ar    1  UNL1        0.0013
     18 C         137.8246  143.6781  162.7941 C.ar    1  UNL1        0.0147
     19 C         141.0072  141.3820  158.2742 C.3     1  UNL1        0.0841
     20 C         140.1789  140.1472  158.0764 C.3     1  UNL1        0.0376
     21 C         140.8145  138.8937  157.5522 C.3     1  UNL1        0.0738
     22 N         142.2784  138.8750  157.2258 N.3     1  UNL1       -0.2738
     23 C         143.1068  140.1098  157.4236 C.3     1  UNL1        0.0738
     24 C         142.4712  141.3633  157.9478 C.3     1  UNL1        0.0376
     25 C         142.9140  137.6215  156.7017 C.3     1  UNL1        0.0575
     26 C         143.8434  137.5285  155.5280 C.3     1  UNL1        0.0160
     27 C         144.2356  136.0905  155.3601 C.3     1  UNL1        0.0014
     28 C         143.5485  135.2946  156.4300 C.3     1  UNL1        0.0014
     29 C         142.7317  136.2409  157.2591 C.3     1  UNL1        0.0160
@<TRIPOS>BOND
     1     1     2    2
     2     2     3   am
     3     3    13    1
     4    13    14   ar
     5    14    15   ar
     6    15    16   ar
     7    16    17   ar
     8    17    18   ar
     9     2     4   am
    10     4     6    1
    11     6     7   ar
    12     7     8   ar
    13     8     9   ar
    14     9    10    1
    15     9    11   ar
    16    11    12   ar
    17     4    19    1
    18    19    20    1
    19    20    21    1
    20    21    22    1
    21    22    25    1
    22    25    26    1
    23    26    27    1
    24    27    28    1
    25    28    29    1
    26    22    23    1
    27    23    24    1
    28    18    13   ar
    29    12     6   ar
    30    24    19    1
    31    29    25    1
    32     3     5    1
@<TRIPOS>MOLECULE
*****
 29 32 0 0 0
SMALL
GASTEIGER

@<TRIPOS>ATOM
      1 O         143.7696  140.6881  157.8394 O.2     1  UNL1       -0.2519
      2 C         143.5536  139.6170  156.8117 C.2     1  UNL1        0.3114
      3 N         144.1537  139.7577  155.4442 N.am    1  UNL1       -0.2679
      4 N         142.7376  138.4051  157.1515 N.am    1  UNL1       -0.2446
      5 H         144.0120  139.0547  154.7697 H       1  UNL1        0.1564
      6 C         142.5217  137.3340  156.1238 C.ar    1  UNL1        0.0552
      7 C         143.5291  136.2343  155.9636 C.ar    1  UNL1        0.0155
      8 C         143.3132  135.1632  154.9359 C.ar    1  UNL1        0.0080
      9 C         142.0899  135.1918  154.0685 C.ar    1  UNL1        0.0346
     10 BR        141.8740  134.1207  153.0408 Br      1  UNL1       -0.0490
     11 C         141.0823  136.2915  154.2287 C.ar    1  UNL1        0.0080
     12 C         141.2982  137.3626  155.2563 C.ar    1  UNL1        0.0155
     13 C         144.9698  140.9697  155.1043 C.ar    1  UNL1        0.0516
     14 C         144.3339  142.1263  154.3918 C.ar    1  UNL1        0.0147
     15 C         145.1499  143.3382  154.0520 C.ar    1  UNL1        0.0013
     16 C         146.6019  143.3933  154.4247 C.ar    1  UNL1        0.0001
     17 C         147.2377  142.2366  155.1372 C.ar    1  UNL1        0.0013
     18 C         146.4217  141.0248  155.4770 C.ar    1  UNL1        0.0147
     19 C         142.1375  138.2643  158.5190 C.3     1  UNL1        0.0841
     20 C         140.6871  138.5782  158.7375 C.3     1  UNL1        0.0376
     21 C         140.0870  138.4374  160.1050 C.3     1  UNL1        0.0738
     22 N         140.9374  137.9827  161.2540 N.3     1  UNL1       -0.2738
     23 C         142.3878  137.6689  161.0355 C.3     1  UNL1        0.0738
     24 C         142.9879  137.8097  159.6680 C.3     1  UNL1        0.0376
     25 C         140.3373  137.8420  162.6215 C.3     1  UNL1        0.0575
     26 C         141.0348  137.3149  163.8404 C.3     1  UNL1        0.0160
     27 C         140.0629  137.3507  164.9824 C.3     1  UNL1        0.0014
     28 C         138.7648  137.9000  164.4694 C.3     1  UNL1        0.0014
     29 C         138.9344  138.2036  163.0102 C.3     1  UNL1        0.0160
@<TRIPOS>BOND
     1     1     2    2
     2     2     3   am
     3     3    13    1
     4    13    14   ar
     5    14    15   ar
     6    15    16   ar
     7    16    17   ar
     8    17    18   ar
     9     2     4   am
    10     4     6    1
    11     6     7   ar
    12     7     8   ar
    13     8     9   ar
    14     9    10    1
    15     9    11   ar
    16    11    12   ar
    17     4    19    1
    18    19    20    1
    19    20    21    1
    20    21    22    1
    21    22    25    1
    22    25    26    1
    23    26    27    1
    24    27    28    1
    25    28    29    1
    26    22    23    1
    27    23    24    1
    28    18    13   ar
    29    12     6   ar
    30    24    19    1
    31    29    25    1
    32     3     5    1
@<TRIPOS>MOLECULE
*****
 29 32 0 0 0
SMALL
GASTEIGER

@<TRIPOS>ATOM
      1 O         143.1276  140.7374  158.4005 O.2     1  UNL1       -0.2519
      2 C         142.9810  139.5103  157.5505 C.2     1  UNL1        0.3114
      3 N         143.6721  139.4316  156.2215 N.am    1  UNL1       -0.2679
      4 N         142.1433  138.3618  158.0294 N.am    1  UNL1       -0.2446
      5 H         143.5759  138.6262  155.6636 H       1  UNL1        0.1564
      6 C         141.9967  137.1347  157.1793 C.ar    1  UNL1        0.0552
      7 C         140.8721  137.0364  156.1917 C.ar    1  UNL1        0.0155
      8 C         140.7255  135.8093  155.3417 C.ar    1  UNL1        0.0080
      9 C         141.7035  134.6804  155.4792 C.ar    1  UNL1        0.0346
     10 BR        141.5569  133.4533  154.6291 Br      1  UNL1       -0.0490
     11 C         142.8283  134.7786  156.4668 C.ar    1  UNL1        0.0080
     12 C         142.9749  136.0058  157.3169 C.ar    1  UNL1        0.0155
     13 C         144.5098  140.5801  155.7425 C.ar    1  UNL1        0.0516
     14 C         143.8831  141.6828  154.9418 C.ar    1  UNL1        0.0147
     15 C         144.7208  142.8312  154.4629 C.ar    1  UNL1        0.0013
     16 C         146.1852  142.8769  154.7847 C.ar    1  UNL1        0.0001
     17 C         146.8119  141.7741  155.5855 C.ar    1  UNL1        0.0013
     18 C         145.9742  140.6258  156.0644 C.ar    1  UNL1        0.0147
     19 C         141.4523  138.4405  159.3584 C.3     1  UNL1        0.0841
     20 C         140.0283  138.9054  159.4369 C.3     1  UNL1        0.0376
     21 C         139.3373  138.9841  160.7659 C.3     1  UNL1        0.0738
     22 N         140.0702  138.5979  162.0164 N.3     1  UNL1       -0.2738
     23 C         141.4942  138.1330  161.9379 C.3     1  UNL1        0.0738
     24 C         142.1852  138.0543  160.6088 C.3     1  UNL1        0.0376
     25 C         139.3791  138.6766  163.3454 C.3     1  UNL1        0.0575
     26 C         139.3220  137.5876  164.3753 C.3     1  UNL1        0.0160
     27 C         138.5314  138.0960  165.5442 C.3     1  UNL1        0.0014
     28 C         138.1000  139.4994  165.2368 C.3     1  UNL1        0.0014
     29 C         138.6239  139.8582  163.8779 C.3     1  UNL1        0.0160
@<TRIPOS>BOND
     1     1     2    2
     2     2     3   am
     3     3    13    1
     4    13    14   ar
     5    14    15   ar
     6    15    16   ar
     7    16    17   ar
     8    17    18   ar
     9     2     4   am
    10     4     6    1
    11     6     7   ar
    12     7     8   ar
    13     8     9   ar
    14     9    10    1
    15     9    11   ar
    16    11    12   ar
    17     4    19    1
    18    19    20    1
    19    20    21    1
    20    21    22    1
    21    22    25    1
    22    25    26    1
    23    26    27    1
    24    27    28    1
    25    28    29    1
    26    22    23    1
    27    23    24    1
    28    18    13   ar
    29    12     6   ar
    30    24    19    1
    31    29    25    1
    32     3     5    1
@<TRIPOS>MOLECULE
*****
 29 32 0 0 0
SMALL
GASTEIGER

@<TRIPOS>ATOM
      1 O         138.7910  143.1047  159.1619 O.2     1  UNL1       -0.2519
      2 C         139.7051  142.2826  158.3024 C.2     1  UNL1        0.3114
      3 N         140.0890  142.7691  156.9364 N.am    1  UNL1       -0.2679
      4 N         140.2354  140.9741  158.8090 N.am    1  UNL1       -0.2446
      5 H         140.6889  142.2296  156.3723 H       1  UNL1        0.1564
      6 C         141.1495  140.1520  157.9495 C.ar    1  UNL1        0.0552
      7 C         142.6275  140.4066  157.9691 C.ar    1  UNL1        0.0155
      8 C         143.5416  139.5846  157.1097 C.ar    1  UNL1        0.0080
      9 C         142.9777  138.5080  156.2306 C.ar    1  UNL1        0.0346
     10 BR        143.8918  137.6860  155.3712 Br      1  UNL1       -0.0490
     11 C         141.4995  138.2533  156.2110 C.ar    1  UNL1        0.0080
     12 C         140.5854  139.0754  157.0705 C.ar    1  UNL1        0.0155
     13 C         139.5587  144.0777  156.4298 C.ar    1  UNL1        0.0516
     14 C         140.2256  145.3613  156.8267 C.ar    1  UNL1        0.0147
     15 C         139.6953  146.6698  156.3201 C.ar    1  UNL1        0.0013
     16 C         138.4982  146.6946  155.4167 C.ar    1  UNL1        0.0001
     17 C         137.8313  145.4110  155.0198 C.ar    1  UNL1        0.0013
     18 C         138.3616  144.1025  155.5264 C.ar    1  UNL1        0.0147
     19 C         139.8515  140.4876  160.1750 C.3     1  UNL1        0.0841
     20 C         140.7585  140.7389  161.3429 C.3     1  UNL1        0.0376
     21 C         140.3746  140.2525  162.7089 C.3     1  UNL1        0.0738
     22 N         139.0837  139.5146  162.9070 N.3     1  UNL1       -0.2738
     23 C         138.1767  139.2633  161.7390 C.3     1  UNL1        0.0738
     24 C         138.5606  139.7498  160.3730 C.3     1  UNL1        0.0376
     25 C         138.6998  139.0281  164.2730 C.3     1  UNL1        0.0575
     26 C         138.7515  137.6068  164.7494 C.3     1  UNL1        0.0160
     27 C         138.2805  137.5778  166.1732 C.3     1  UNL1        0.0014
     28 C         137.9377  138.9812  166.5768 C.3     1  UNL1        0.0014
     29 C         138.1969  139.8776  165.4023 C.3     1  UNL1        0.0160
@<TRIPOS>BOND
     1     1     2    2
     2     2     3   am
     3     3    13    1
     4    13    14   ar
     5    14    15   ar
     6    15    16   ar
     7    16    17   ar
     8    17    18   ar
     9     2     4   am
    10     4     6    1
    11     6     7   ar
    12     7     8   ar
    13     8     9   ar
    14     9    10    1
    15     9    11   ar
    16    11    12   ar
    17     4    19    1
    18    19    20    1
    19    20    21    1
    20    21    22    1
    21    22    25    1
    22    25    26    1
    23    26    27    1
    24    27    28    1
    25    28    29    1
    26    22    23    1
    27    23    24    1
    28    18    13   ar
    29    12     6   ar
    30    24    19    1
    31    29    25    1
    32     3     5    1
@<TRIPOS>MOLECULE
*****
 29 32 0 0 0
SMALL
GASTEIGER

@<TRIPOS>ATOM
      1 O         144.8661  137.4859  155.4183 O.2     1  UNL1       -0.2519
      2 C         143.7306  138.2176  156.0705 C.2     1  UNL1        0.3114
      3 N         143.7558  139.7147  156.1598 N.am    1  UNL1       -0.2679
      4 N         142.5699  137.4521  156.6334 N.am    1  UNL1       -0.2446
      5 H         143.0105  140.1949  156.5878 H       1  UNL1        0.1564
      6 C         141.4344  138.1837  157.2855 C.ar    1  UNL1        0.0552
      7 C         140.2998  138.7026  156.4529 C.ar    1  UNL1        0.0155
      8 C         139.1643  139.4343  157.1051 C.ar    1  UNL1        0.0080
      9 C         139.1634  139.6470  158.5899 C.ar    1  UNL1        0.0346
     10 BR        138.0279  140.3787  159.2420 Br      1  UNL1       -0.0490
     11 C         140.2980  139.1281  159.4226 C.ar    1  UNL1        0.0080
     12 C         141.4335  138.3964  158.7704 C.ar    1  UNL1        0.0155
     13 C         144.9165  140.4802  155.5969 C.ar    1  UNL1        0.0516
     14 C         145.1286  140.5372  154.1131 C.ar    1  UNL1        0.0147
     15 C         146.2893  141.3026  153.5503 C.ar    1  UNL1        0.0013
     16 C         147.2379  142.0112  154.4713 C.ar    1  UNL1        0.0001
     17 C         147.0257  141.9543  155.9551 C.ar    1  UNL1        0.0013
     18 C         145.8651  141.1888  156.5179 C.ar    1  UNL1        0.0147
     19 C         142.5447  135.9550  156.5441 C.3     1  UNL1        0.0841
     20 C         141.7024  135.2798  155.5026 C.3     1  UNL1        0.0376
     21 C         141.6773  133.7827  155.4133 C.3     1  UNL1        0.0738
     22 N         142.4944  132.9607  156.3656 N.3     1  UNL1       -0.2738
     23 C         143.3367  133.6359  157.4070 C.3     1  UNL1        0.0738
     24 C         143.3618  135.1330  157.4963 C.3     1  UNL1        0.0376
     25 C         142.4692  131.4636  156.2763 C.3     1  UNL1        0.0575
     26 C         143.2844  130.5170  157.1066 C.3     1  UNL1        0.0160
     27 C         142.9434  129.1186  156.6845 C.3     1  UNL1        0.0014
     28 C         141.9176  129.2009  155.5932 C.3     1  UNL1        0.0014
     29 C         141.6245  130.6502  155.3409 C.3     1  UNL1        0.0160
@<TRIPOS>BOND
     1     1     2    2
     2     2     3   am
     3     3    13    1
     4    13    14   ar
     5    14    15   ar
     6    15    16   ar
     7    16    17   ar
     8    17    18   ar
     9     2     4   am
    10     4     6    1
    11     6     7   ar
    12     7     8   ar
    13     8     9   ar
    14     9    10    1
    15     9    11   ar
    16    11    12   ar
    17     4    19    1
    18    19    20    1
    19    20    21    1
    20    21    22    1
    21    22    25    1
    22    25    26    1
    23    26    27    1
    24    27    28    1
    25    28    29    1
    26    22    23    1
    27    23    24    1
    28    18    13   ar
    29    12     6   ar
    30    24    19    1
    31    29    25    1
    32     3     5    1
@<TRIPOS>MOLECULE
*****
 29 32 0 0 0
SMALL
GASTEIGER

@<TRIPOS>ATOM
      1 O         142.7723  139.4018  157.3655 O.2     1  UNL1       -0.2519
      2 C         143.7794  140.0402  156.4554 C.2     1  UNL1        0.3114
      3 N         144.2304  139.3248  155.2166 N.am    1  UNL1       -0.2679
      4 N         144.3353  141.3941  156.7841 N.am    1  UNL1       -0.2446
      5 H         144.8914  139.7438  154.6193 H       1  UNL1        0.1564
      6 C         145.3424  142.0324  155.8740 C.ar    1  UNL1        0.0552
      7 C         146.8076  141.8018  156.0973 C.ar    1  UNL1        0.0155
      8 C         147.8146  142.4402  155.1872 C.ar    1  UNL1        0.0080
      9 C         147.3564  143.3092  154.0537 C.ar    1  UNL1        0.0346
     10 BR        148.3635  143.9476  153.1436 Br      1  UNL1       -0.0490
     11 C         145.8912  143.5399  153.8303 C.ar    1  UNL1        0.0080
     12 C         144.8841  142.9016  154.7405 C.ar    1  UNL1        0.0155
     13 C         143.6745  137.9709  154.8879 C.ar    1  UNL1        0.0516
     14 C         144.2202  136.7506  155.5683 C.ar    1  UNL1        0.0147
     15 C         143.6643  135.3968  155.2396 C.ar    1  UNL1        0.0013
     16 C         142.5626  135.2633  154.2304 C.ar    1  UNL1        0.0001
     17 C         142.0168  136.4836  153.5500 C.ar    1  UNL1        0.0013
     18 C         142.5728  137.8374  153.8787 C.ar    1  UNL1        0.0147
     19 C         143.8842  142.1095  158.0229 C.3     1  UNL1        0.0841
     20 C         142.7876  143.1297  157.9425 C.3     1  UNL1        0.0376
     21 C         142.3365  143.8451  159.1813 C.3     1  UNL1        0.0738
     22 N         142.9821  143.5404  160.5006 N.3     1  UNL1       -0.2738
     23 C         144.0788  142.5201  160.5810 C.3     1  UNL1        0.0738
     24 C         144.5298  141.8047  159.3421 C.3     1  UNL1        0.0376
     25 C         142.5310  144.2558  161.7394 C.3     1  UNL1        0.0575
     26 C         143.4037  144.6634  162.8892 C.3     1  UNL1        0.0160
     27 C         142.5401  145.3488  163.9063 C.3     1  UNL1        0.0014
     28 C         141.1336  145.3647  163.3851 C.3     1  UNL1        0.0014
     29 C         141.1280  144.6892  162.0458 C.3     1  UNL1        0.0160
@<TRIPOS>BOND
     1     1     2    2
     2     2     3   am
     3     3    13    1
     4    13    14   ar
     5    14    15   ar
     6    15    16   ar
     7    16    17   ar
     8    17    18   ar
     9     2     4   am
    10     4     6    1
    11     6     7   ar
    12     7     8   ar
    13     8     9   ar
    14     9    10    1
    15     9    11   ar
    16    11    12   ar
    17     4    19    1
    18    19    20    1
    19    20    21    1
    20    21    22    1
    21    22    25    1
    22    25    26    1
    23    26    27    1
    24    27    28    1
    25    28    29    1
    26    22    23    1
    27    23    24    1
    28    18    13   ar
    29    12     6   ar
    30    24    19    1
    31    29    25    1
    32     3     5    1
@<TRIPOS>MOLECULE
*****
 29 32 0 0 0
SMALL
GASTEIGER

@<TRIPOS>ATOM
      1 O         140.3450  137.9438  161.5525 O.2     1  UNL1       -0.2519
      2 C         140.4969  139.3907  161.1873 C.2     1  UNL1        0.3114
      3 N         140.2797  140.4527  162.2241 N.am    1  UNL1       -0.2679
      4 N         140.8660  139.7756  159.7853 N.am    1  UNL1       -0.2446
      5 H         140.3794  141.4024  161.9844 H       1  UNL1        0.1564
      6 C         141.0179  141.2226  159.4201 C.ar    1  UNL1        0.0552
      7 C         142.3597  141.8851  159.5226 C.ar    1  UNL1        0.0155
      8 C         142.5116  143.3320  159.1574 C.ar    1  UNL1        0.0080
      9 C         141.3217  144.1164  158.6897 C.ar    1  UNL1        0.0346
     10 BR        141.4735  145.5633  158.3245 Br      1  UNL1       -0.0490
     11 C         139.9798  143.4539  158.5871 C.ar    1  UNL1        0.0080
     12 C         139.8279  142.0069  158.9523 C.ar    1  UNL1        0.0155
     13 C         139.9106  140.0678  163.6262 C.ar    1  UNL1        0.0516
     14 C         140.9823  139.8751  164.6578 C.ar    1  UNL1        0.0147
     15 C         140.6132  139.4902  166.0598 C.ar    1  UNL1        0.0013
     16 C         139.1724  139.2981  166.4301 C.ar    1  UNL1        0.0001
     17 C         138.1007  139.4908  165.3985 C.ar    1  UNL1        0.0013
     18 C         138.4698  139.8757  163.9965 C.ar    1  UNL1        0.0147
     19 C         141.0831  138.7137  158.7485 C.3     1  UNL1        0.0841
     20 C         142.4043  138.0086  158.6623 C.3     1  UNL1        0.0376
     21 C         142.6215  136.9466  157.6256 C.3     1  UNL1        0.0738
     22 N         141.5175  136.5896  156.6748 N.3     1  UNL1       -0.2738
     23 C         140.1963  137.2947  156.7610 C.3     1  UNL1        0.0738
     24 C         139.9792  138.3568  157.7978 C.3     1  UNL1        0.0376
     25 C         141.7346  135.5276  155.6381 C.3     1  UNL1        0.0575
     26 C         141.4984  135.6732  154.1640 C.3     1  UNL1        0.0160
     27 C         141.8439  134.3691  153.5082 C.3     1  UNL1        0.0014
     28 C         142.2937  133.4176  154.5770 C.3     1  UNL1        0.0014
     29 C         142.2262  134.1336  155.8933 C.3     1  UNL1        0.0160
@<TRIPOS>BOND
     1     1     2    2
     2     2     3   am
     3     3    13    1
     4    13    14   ar
     5    14    15   ar
     6    15    16   ar
     7    16    17   ar
     8    17    18   ar
     9     2     4   am
    10     4     6    1
    11     6     7   ar
    12     7     8   ar
    13     8     9   ar
    14     9    10    1
    15     9    11   ar
    16    11    12   ar
    17     4    19    1
    18    19    20    1
    19    20    21    1
    20    21    22    1
    21    22    25    1
    22    25    26    1
    23    26    27    1
    24    27    28    1
    25    28    29    1
    26    22    23    1
    27    23    24    1
    28    18    13   ar
    29    12     6   ar
    30    24    19    1
    31    29    25    1
    32     3     5    1
@<TRIPOS>MOLECULE
*****
 29 32 0 0 0
SMALL
GASTEIGER

@<TRIPOS>ATOM
      1 O         144.6972  136.6725  155.4891 O.2     1  UNL1       -0.2519
      2 C         143.6048  136.8330  156.5045 C.2     1  UNL1        0.3114
      3 N         142.9963  135.6230  157.1491 N.am    1  UNL1       -0.2679
      4 N         143.1209  138.2036  156.8753 N.am    1  UNL1       -0.2446
      5 H         142.2794  135.7283  157.8155 H       1  UNL1        0.1564
      6 C         142.0285  138.3641  157.8906 C.ar    1  UNL1        0.0552
      7 C         142.3552  138.3369  159.3543 C.ar    1  UNL1        0.0155
      8 C         141.2628  138.4974  160.3697 C.ar    1  UNL1        0.0080
      9 C         139.8438  138.6850  159.9213 C.ar    1  UNL1        0.0346
     10 BR        138.7514  138.8455  160.9367 Br      1  UNL1       -0.0490
     11 C         139.5170  138.7122  158.4575 C.ar    1  UNL1        0.0080
     12 C         140.6094  138.5517  157.4422 C.ar    1  UNL1        0.0155
     13 C         143.4802  134.2524  156.7783 C.ar    1  UNL1        0.0516
     14 C         144.3463  133.4802  157.7289 C.ar    1  UNL1        0.0147
     15 C         144.8302  132.1097  157.3581 C.ar    1  UNL1        0.0013
     16 C         144.4479  131.5114  156.0368 C.ar    1  UNL1        0.0001
     17 C         143.5818  132.2835  155.0863 C.ar    1  UNL1        0.0013
     18 C         143.0980  133.6540  155.4570 C.ar    1  UNL1        0.0147
     19 C         143.7294  139.4136  156.2307 C.3     1  UNL1        0.0841
     20 C         144.6936  140.2679  156.9991 C.3     1  UNL1        0.0376
     21 C         145.3020  141.4779  156.3546 C.3     1  UNL1        0.0738
     22 N         144.9463  141.8338  154.9414 N.3     1  UNL1       -0.2738
     23 C         143.9821  140.9795  154.1729 C.3     1  UNL1        0.0738
     24 C         143.3736  139.7694  154.8176 C.3     1  UNL1        0.0376
     25 C         145.5548  143.0438  154.2968 C.3     1  UNL1        0.0575
     26 C         146.9438  143.5610  154.5273 C.3     1  UNL1        0.0160
     27 C         147.1286  144.7859  153.6815 C.3     1  UNL1        0.0014
     28 C         145.8537  145.0258  152.9282 C.3     1  UNL1        0.0014
     29 C         144.8811  143.9491  153.3086 C.3     1  UNL1        0.0160
@<TRIPOS>BOND
     1     1     2    2
     2     2     3   am
     3     3    13    1
     4    13    14   ar
     5    14    15   ar
     6    15    16   ar
     7    16    17   ar
     8    17    18   ar
     9     2     4   am
    10     4     6    1
    11     6     7   ar
    12     7     8   ar
    13     8     9   ar
    14     9    10    1
    15     9    11   ar
    16    11    12   ar
    17     4    19    1
    18    19    20    1
    19    20    21    1
    20    21    22    1
    21    22    25    1
    22    25    26    1
    23    26    27    1
    24    27    28    1
    25    28    29    1
    26    22    23    1
    27    23    24    1
    28    18    13   ar
    29    12     6   ar
    30    24    19    1
    31    29    25    1
    32     3     5    1
@<TRIPOS>MOLECULE
*****
 29 32 0 0 0
SMALL
GASTEIGER

@<TRIPOS>ATOM
      1 O         138.7483  142.0413  157.5051 O.2     1  UNL1       -0.2519
      2 C         138.8774  143.2067  156.5696 C.2     1  UNL1        0.3114
      3 N         138.0919  143.2334  155.2920 N.am    1  UNL1       -0.2679
      4 N         139.7920  144.3453  156.9117 N.am    1  UNL1       -0.2446
      5 H         138.1766  143.9983  154.6780 H       1  UNL1        0.1564
      6 C         139.9211  145.5107  155.9762 C.ar    1  UNL1        0.0552
      7 C         140.8202  145.4157  154.7794 C.ar    1  UNL1        0.0155
      8 C         140.9493  146.5812  153.8439 C.ar    1  UNL1        0.0080
      9 C         140.1792  147.8415  154.1052 C.ar    1  UNL1        0.0346
     10 BR        140.3083  149.0069  153.1697 Br      1  UNL1       -0.0490
     11 C         139.2800  147.9366  155.3021 C.ar    1  UNL1        0.0080
     12 C         139.1509  146.7712  156.2376 C.ar    1  UNL1        0.0155
     13 C         137.1772  142.0948  154.9499 C.ar    1  UNL1        0.0516
     14 C         137.7186  140.8806  154.2553 C.ar    1  UNL1        0.0147
     15 C         136.8040  139.7420  153.9132 C.ar    1  UNL1        0.0013
     16 C         135.3480  139.8176  154.2657 C.ar    1  UNL1        0.0001
     17 C         134.8066  141.0318  154.9604 C.ar    1  UNL1        0.0013
     18 C         135.7212  142.1704  155.3025 C.ar    1  UNL1        0.0147
     19 C         140.5775  144.3186  158.1893 C.3     1  UNL1        0.0841
     20 C         140.1234  145.1303  159.3661 C.3     1  UNL1        0.0376
     21 C         140.9089  145.1035  160.6437 C.3     1  UNL1        0.0738
     22 N         142.1485  144.2650  160.7445 N.3     1  UNL1       -0.2738
     23 C         142.6026  143.4532  159.5677 C.3     1  UNL1        0.0738
     24 C         141.8171  143.4800  158.2901 C.3     1  UNL1        0.0376
     25 C         142.9340  144.2382  162.0221 C.3     1  UNL1        0.0575
     26 C         142.7104  145.1220  163.2132 C.3     1  UNL1        0.0160
     27 C         143.7192  144.7529  164.2602 C.3     1  UNL1        0.0014
     28 C         144.5664  143.6410  163.7160 C.3     1  UNL1        0.0014
     29 C         144.0811  143.3229  162.3328 C.3     1  UNL1        0.0160
@<TRIPOS>BOND
     1     1     2    2
     2     2     3   am
     3     3    13    1
     4    13    14   ar
     5    14    15   ar
     6    15    16   ar
     7    16    17   ar
     8    17    18   ar
     9     2     4   am
    10     4     6    1
    11     6     7   ar
    12     7     8   ar
    13     8     9   ar
    14     9    10    1
    15     9    11   ar
    16    11    12   ar
    17     4    19    1
    18    19    20    1
    19    20    21    1
    20    21    22    1
    21    22    25    1
    22    25    26    1
    23    26    27    1
    24    27    28    1
    25    28    29    1
    26    22    23    1
    27    23    24    1
    28    18    13   ar
    29    12     6   ar
    30    24    19    1
    31    29    25    1
    32     3     5    1
