@<TRIPOS>MOLECULE
*****
 32 36 0 0 0
SMALL
GASTEIGER

@<TRIPOS>ATOM
      1 C         141.3780  142.1918  168.0145 C.ar    1  UNL1        0.1675
      2 N         140.2661  142.2186  167.0080 N.ar    1  UNL1       -0.2120
      3 C         140.5745  142.4294  165.5552 C.ar    1  UNL1        0.1318
      4 C         141.9947  142.6134  165.1090 C.ar    1  UNL1        0.0491
      5 C         142.3031  142.8241  163.6562 C.ar    1  UNL1        0.0041
      6 C         143.7233  143.0081  163.2100 C.ar    1  UNL1        0.0002
      7 C         144.8351  142.9812  164.2165 C.ar    1  UNL1        0.0015
      8 C         144.5267  142.7705  165.6692 C.ar    1  UNL1        0.0192
      9 C         143.1066  142.5865  166.1155 C.ar    1  UNL1        0.0856
     10 N         142.7982  142.3757  167.5682 N.ar    1  UNL1       -0.2263
     11 C         141.7939  139.4168  169.6807 C.3     1  UNL1        0.0558
     12 C         141.2608  140.7055  170.2331 C.ar    1  UNL1        0.1036
     13 N         140.8253  140.9449  171.6484 N.ar    1  UNL1       -0.0816
     14 O         140.3650  142.3683  171.7572 O.2     1  UNL1       -0.3580
     15 C         140.5159  143.0088  170.4092 C.ar    1  UNL1        0.1573
     16 C         140.1734  144.4276  170.0638 C.3     1  UNL1        0.0755
     17 C         141.0697  141.9810  169.4672 C.ar    1  UNL1        0.0854
     18 C         141.1912  142.8510  162.6497 C.ar    1  UNL1        0.0001
     19 C         140.4962  144.1422  162.3342 C.ar    1  UNL1        0.0000
     20 C         139.3842  144.1691  161.3277 C.ar    1  UNL1        0.0000
     21 C         138.9674  142.9046  160.6367 C.ar    1  UNL1        0.0000
     22 C         139.6625  141.6133  160.9523 C.ar    1  UNL1        0.0000
     23 C         140.7743  141.5865  161.9588 C.ar    1  UNL1        0.0000
     24 N         139.4626  142.4563  164.5487 N.pl3   1  UNL1       -0.3131
     25 H         139.5330  143.0313  163.7528 H       1  UNL1        0.1485
     26 C         138.2435  141.6069  164.7550 C.3     1  UNL1        0.1348
     27 C         138.3822  140.1216  164.9125 C.ar    1  UNL1        0.0788
     28 C         138.0360  139.4705  166.2186 C.ar    1  UNL1        0.0165
     29 C         138.1746  137.9852  166.3762 C.ar    1  UNL1        0.0029
     30 C         138.6594  137.1511  165.2275 C.ar    1  UNL1        0.0207
     31 C         139.0056  137.8024  163.9213 C.ar    1  UNL1        0.0985
     32 N         138.8670  139.2876  163.7638 N.ar    1  UNL1       -0.2464
@<TRIPOS>BOND
     1    11    12    1
     2    12    13   ar
     3    13    14   ar
     4    14    15   ar
     5    15    16    1
     6    15    17   ar
     7    17     1    1
     8     1     2   ar
     9     2     3   ar
    10     3    24    1
    11    24    26    1
    12    26    27    1
    13    27    28   ar
    14    28    29   ar
    15    29    30   ar
    16    30    31   ar
    17    31    32   ar
    18     3     4   ar
    19     4     5   ar
    20     5    18    1
    21    18    19   ar
    22    19    20   ar
    23    20    21   ar
    24    21    22   ar
    25    22    23   ar
    26     5     6   ar
    27     6     7   ar
    28     7     8   ar
    29     8     9   ar
    30     9    10   ar
    31    17    12   ar
    32    10     1   ar
    33    32    27   ar
    34     9     4   ar
    35    23    18   ar
    36    24    25    1
@<TRIPOS>MOLECULE
*****
 32 36 0 0 0
SMALL
GASTEIGER

@<TRIPOS>ATOM
      1 C         141.5453  142.1272  167.9302 C.ar    1  UNL1        0.1675
      2 N         140.3993  142.1595  166.9629 N.ar    1  UNL1       -0.2120
      3 C         140.6570  142.3819  165.5020 C.ar    1  UNL1        0.1318
      4 C         142.0608  142.5718  165.0085 C.ar    1  UNL1        0.0491
      5 C         142.3185  142.7941  163.5476 C.ar    1  UNL1        0.0041
      6 C         143.7222  142.9841  163.0541 C.ar    1  UNL1        0.0002
      7 C         144.8681  142.9517  164.0214 C.ar    1  UNL1        0.0015
      8 C         144.6103  142.7294  165.4823 C.ar    1  UNL1        0.0192
      9 C         143.2067  142.5394  165.9758 C.ar    1  UNL1        0.0856
     10 N         142.9489  142.3171  167.4367 N.ar    1  UNL1       -0.2263
     11 C         140.2306  144.2843  169.9962 C.3     1  UNL1        0.0558
     12 C         140.6833  142.8963  170.3407 C.ar    1  UNL1        0.1036
     13 N         140.6111  142.2563  171.6954 N.ar    1  UNL1       -0.0816
     14 O         141.1707  140.8691  171.5830 O.2     1  UNL1       -0.3580
     15 C         141.5888  140.6519  170.1589 C.ar    1  UNL1        0.1573
     16 C         142.2007  139.4014  169.6006 C.3     1  UNL1        0.0755
     17 C         141.2875  141.9048  169.3911 C.ar    1  UNL1        0.0854
     18 C         141.1725  142.8265  162.5803 C.ar    1  UNL1        0.0001
     19 C         140.7301  141.5655  161.8992 C.ar    1  UNL1        0.0000
     20 C         139.5841  141.5978  160.9318 C.ar    1  UNL1        0.0000
     21 C         138.8805  142.8913  160.6456 C.ar    1  UNL1        0.0000
     22 C         139.3230  144.1524  161.3268 C.ar    1  UNL1        0.0000
     23 C         140.4689  144.1200  162.2941 C.ar    1  UNL1        0.0000
     24 N         139.5111  142.4143  164.5347 N.pl3   1  UNL1       -0.3131
     25 H         139.5647  142.9741  163.7266 H       1  UNL1        0.1485
     26 C         138.2834  141.5936  164.7985 C.3     1  UNL1        0.1348
     27 C         138.3945  140.1056  164.9515 C.ar    1  UNL1        0.0788
     28 C         138.0269  139.4560  166.2525 C.ar    1  UNL1        0.0165
     29 C         138.1380  137.9679  166.4055 C.ar    1  UNL1        0.0029
     30 C         138.6168  137.1295  165.2575 C.ar    1  UNL1        0.0207
     31 C         138.9844  137.7793  163.9564 C.ar    1  UNL1        0.0985
     32 N         138.8733  139.2673  163.8034 N.ar    1  UNL1       -0.2464
@<TRIPOS>BOND
     1    11    12    1
     2    12    13   ar
     3    13    14   ar
     4    14    15   ar
     5    15    16    1
     6    15    17   ar
     7    17     1    1
     8     1     2   ar
     9     2     3   ar
    10     3    24    1
    11    24    26    1
    12    26    27    1
    13    27    28   ar
    14    28    29   ar
    15    29    30   ar
    16    30    31   ar
    17    31    32   ar
    18     3     4   ar
    19     4     5   ar
    20     5    18    1
    21    18    19   ar
    22    19    20   ar
    23    20    21   ar
    24    21    22   ar
    25    22    23   ar
    26     5     6   ar
    27     6     7   ar
    28     7     8   ar
    29     8     9   ar
    30     9    10   ar
    31    17    12   ar
    32    10     1   ar
    33    32    27   ar
    34     9     4   ar
    35    23    18   ar
    36    24    25    1
@<TRIPOS>MOLECULE
*****
 32 36 0 0 0
SMALL
GASTEIGER

@<TRIPOS>ATOM
      1 C         142.0661  141.3999  168.1341 C.ar    1  UNL1        0.1675
      2 N         141.5626  140.3547  167.1833 N.ar    1  UNL1       -0.2120
      3 C         142.0332  140.3473  165.7590 C.ar    1  UNL1        0.1318
      4 C         143.0073  141.3852  165.2857 C.ar    1  UNL1        0.0491
      5 C         143.4779  141.3779  163.8614 C.ar    1  UNL1        0.0041
      6 C         144.4520  142.4157  163.3880 C.ar    1  UNL1        0.0002
      7 C         144.9554  143.4608  164.3389 C.ar    1  UNL1        0.0015
      8 C         144.4848  143.4682  165.7631 C.ar    1  UNL1        0.0192
      9 C         143.5108  142.4304  166.2365 C.ar    1  UNL1        0.0856
     10 N         143.0402  142.4377  167.6607 N.ar    1  UNL1       -0.2263
     11 C         140.4187  143.8070  169.5976 C.3     1  UNL1        0.0558
     12 C         140.8383  142.5137  170.2311 C.ar    1  UNL1        0.1036
     13 N         140.5743  142.0997  171.6484 N.ar    1  UNL1       -0.0816
     14 O         141.1683  140.7375  171.8518 O.2     1  UNL1       -0.3580
     15 C         141.7995  140.3095  170.5601 C.ar    1  UNL1        0.1573
     16 C         142.5099  139.0117  170.3134 C.3     1  UNL1        0.0755
     17 C         141.5955  141.4073  169.5584 C.ar    1  UNL1        0.0854
     18 C         142.9744  140.3326  162.9105 C.ar    1  UNL1        0.0001
     19 C         143.5782  138.9596  162.9170 C.ar    1  UNL1        0.0000
     20 C         143.0747  137.9143  161.9661 C.ar    1  UNL1        0.0000
     21 C         141.9674  138.2423  161.0089 C.ar    1  UNL1        0.0000
     22 C         141.3636  139.6154  161.0025 C.ar    1  UNL1        0.0000
     23 C         141.8671  140.6606  161.9533 C.ar    1  UNL1        0.0000
     24 N         141.5298  139.3022  164.8082 N.pl3   1  UNL1       -0.3131
     25 H         142.1345  138.9196  164.1320 H       1  UNL1        0.1485
     26 C         140.1050  138.8399  164.8876 C.3     1  UNL1        0.1348
     27 C         139.1876  139.0324  163.7166 C.ar    1  UNL1        0.0788
     28 C         138.7987  137.8586  162.8676 C.ar    1  UNL1        0.0165
     29 C         137.8813  138.0511  161.6965 C.ar    1  UNL1        0.0029
     30 C         137.3529  139.4175  161.3744 C.ar    1  UNL1        0.0207
     31 C         137.7419  140.5914  162.2235 C.ar    1  UNL1        0.0985
     32 N         138.6592  140.3988  163.3945 N.ar    1  UNL1       -0.2464
@<TRIPOS>BOND
     1    11    12    1
     2    12    13   ar
     3    13    14   ar
     4    14    15   ar
     5    15    16    1
     6    15    17   ar
     7    17     1    1
     8     1     2   ar
     9     2     3   ar
    10     3    24    1
    11    24    26    1
    12    26    27    1
    13    27    28   ar
    14    28    29   ar
    15    29    30   ar
    16    30    31   ar
    17    31    32   ar
    18     3     4   ar
    19     4     5   ar
    20     5    18    1
    21    18    19   ar
    22    19    20   ar
    23    20    21   ar
    24    21    22   ar
    25    22    23   ar
    26     5     6   ar
    27     6     7   ar
    28     7     8   ar
    29     8     9   ar
    30     9    10   ar
    31    17    12   ar
    32    10     1   ar
    33    32    27   ar
    34     9     4   ar
    35    23    18   ar
    36    24    25    1
@<TRIPOS>MOLECULE
*****
 32 36 0 0 0
SMALL
GASTEIGER

@<TRIPOS>ATOM
      1 C         141.6088  140.4839  167.8466 C.ar    1  UNL1        0.1675
      2 N         140.3159  140.3789  167.0933 N.ar    1  UNL1       -0.2120
      3 C         140.3217  139.9944  165.6434 C.ar    1  UNL1        0.1318
      4 C         141.6205  139.7148  164.9469 C.ar    1  UNL1        0.0491
      5 C         141.6264  139.3303  163.4971 C.ar    1  UNL1        0.0041
      6 C         142.9251  139.0507  162.8005 C.ar    1  UNL1        0.0002
      7 C         144.2179  139.1556  163.5539 C.ar    1  UNL1        0.0015
      8 C         144.2120  139.5401  165.0037 C.ar    1  UNL1        0.0192
      9 C         142.9133  139.8197  165.7003 C.ar    1  UNL1        0.0856
     10 N         142.9075  140.2043  167.1501 N.ar    1  UNL1       -0.2263
     11 C         140.5143  143.3001  169.0798 C.3     1  UNL1        0.0558
     12 C         141.0999  142.1628  169.8633 C.ar    1  UNL1        0.1036
     13 N         141.2851  142.1205  171.3513 N.ar    1  UNL1       -0.0816
     14 O         141.9027  140.7998  171.7040 O.2     1  UNL1       -0.3580
     15 C         142.0991  140.0259  170.4341 C.ar    1  UNL1        0.1573
     16 C         142.6882  138.6511  170.3216 C.3     1  UNL1        0.0755
     17 C         141.6029  140.8684  169.2965 C.ar    1  UNL1        0.0854
     18 C         140.3335  139.2253  162.7437 C.ar    1  UNL1        0.0001
     19 C         139.8405  140.3881  161.9345 C.ar    1  UNL1        0.0000
     20 C         138.5476  140.2832  161.1811 C.ar    1  UNL1        0.0000
     21 C         137.7477  139.0154  161.2371 C.ar    1  UNL1        0.0000
     22 C         138.2408  137.8526  162.0464 C.ar    1  UNL1        0.0000
     23 C         139.5337  137.9576  162.7996 C.ar    1  UNL1        0.0000
     24 N         139.0289  139.8895  164.8901 N.pl3   1  UNL1       -0.3131
     25 H         138.8455  139.0973  164.3351 H       1  UNL1        0.1485
     26 C         138.0155  140.9915  164.9824 C.3     1  UNL1        0.1348
     27 C         138.3445  142.3586  164.4602 C.ar    1  UNL1        0.0788
     28 C         139.4159  143.1755  165.1195 C.ar    1  UNL1        0.0165
     29 C         139.7449  144.5427  164.5973 C.ar    1  UNL1        0.0029
     30 C         139.0025  145.0929  163.4158 C.ar    1  UNL1        0.0207
     31 C         137.9310  144.2760  162.7565 C.ar    1  UNL1        0.0985
     32 N         137.6020  142.9089  163.2787 N.ar    1  UNL1       -0.2464
@<TRIPOS>BOND
     1    11    12    1
     2    12    13   ar
     3    13    14   ar
     4    14    15   ar
     5    15    16    1
     6    15    17   ar
     7    17     1    1
     8     1     2   ar
     9     2     3   ar
    10     3    24    1
    11    24    26    1
    12    26    27    1
    13    27    28   ar
    14    28    29   ar
    15    29    30   ar
    16    30    31   ar
    17    31    32   ar
    18     3     4   ar
    19     4     5   ar
    20     5    18    1
    21    18    19   ar
    22    19    20   ar
    23    20    21   ar
    24    21    22   ar
    25    22    23   ar
    26     5     6   ar
    27     6     7   ar
    28     7     8   ar
    29     8     9   ar
    30     9    10   ar
    31    17    12   ar
    32    10     1   ar
    33    32    27   ar
    34     9     4   ar
    35    23    18   ar
    36    24    25    1
@<TRIPOS>MOLECULE
*****
 32 36 0 0 0
SMALL
GASTEIGER

@<TRIPOS>ATOM
      1 C         140.3443  141.5719  167.7845 C.ar    1  UNL1        0.1675
      2 N         140.2492  140.3683  166.8944 N.ar    1  UNL1       -0.2120
      3 C         139.8580  140.5288  165.4552 C.ar    1  UNL1        0.1318
      4 C         139.5620  141.8930  164.9061 C.ar    1  UNL1        0.0491
      5 C         139.1709  142.0536  163.4670 C.ar    1  UNL1        0.0041
      6 C         138.8749  143.4177  162.9179 C.ar    1  UNL1        0.0002
      7 C         138.9701  144.6213  163.8080 C.ar    1  UNL1        0.0015
      8 C         139.3612  144.4607  165.2472 C.ar    1  UNL1        0.0192
      9 C         139.6572  143.0966  165.7962 C.ar    1  UNL1        0.0856
     10 N         140.0483  142.9360  167.2354 N.ar    1  UNL1       -0.2263
     11 C         138.4694  140.3436  170.1563 C.3     1  UNL1        0.0558
     12 C         139.8737  140.8468  170.3139 C.ar    1  UNL1        0.1036
     13 N         140.6627  140.8737  171.5893 N.ar    1  UNL1       -0.0816
     14 O         142.0121  141.4549  171.2874 O.2     1  UNL1       -0.3580
     15 C         142.0572  141.7873  169.8254 C.ar    1  UNL1        0.1573
     16 C         143.2196  142.3896  169.0935 C.3     1  UNL1        0.0755
     17 C         140.7355  141.4114  169.2237 C.ar    1  UNL1        0.0854
     18 C         139.0757  140.8499  162.5769 C.ar    1  UNL1        0.0001
     19 C         137.8086  140.0484  162.5322 C.ar    1  UNL1        0.0000
     20 C         137.7135  138.8448  161.6421 C.ar    1  UNL1        0.0000
     21 C         138.8854  138.4427  160.7967 C.ar    1  UNL1        0.0000
     22 C         140.1526  139.2442  160.8413 C.ar    1  UNL1        0.0000
     23 C         140.2477  140.4478  161.7314 C.ar    1  UNL1        0.0000
     24 N         139.7628  139.3252  164.5651 N.pl3   1  UNL1       -0.3131
     25 H         139.0425  139.2629  163.8969 H       1  UNL1        0.1485
     26 C         140.7652  138.2166  164.6930 C.3     1  UNL1        0.1348
     27 C         142.2325  138.5207  164.6254 C.ar    1  UNL1        0.0788
     28 C         143.0809  138.4001  165.8565 C.ar    1  UNL1        0.0165
     29 C         144.5482  138.7042  165.7890 C.ar    1  UNL1        0.0029
     30 C         145.1671  139.1289  164.4903 C.ar    1  UNL1        0.0207
     31 C         144.3187  139.2494  163.2591 C.ar    1  UNL1        0.0985
     32 N         142.8514  138.9454  163.3267 N.ar    1  UNL1       -0.2464
@<TRIPOS>BOND
     1    11    12    1
     2    12    13   ar
     3    13    14   ar
     4    14    15   ar
     5    15    16    1
     6    15    17   ar
     7    17     1    1
     8     1     2   ar
     9     2     3   ar
    10     3    24    1
    11    24    26    1
    12    26    27    1
    13    27    28   ar
    14    28    29   ar
    15    29    30   ar
    16    30    31   ar
    17    31    32   ar
    18     3     4   ar
    19     4     5   ar
    20     5    18    1
    21    18    19   ar
    22    19    20   ar
    23    20    21   ar
    24    21    22   ar
    25    22    23   ar
    26     5     6   ar
    27     6     7   ar
    28     7     8   ar
    29     8     9   ar
    30     9    10   ar
    31    17    12   ar
    32    10     1   ar
    33    32    27   ar
    34     9     4   ar
    35    23    18   ar
    36    24    25    1
@<TRIPOS>MOLECULE
*****
 32 36 0 0 0
SMALL
GASTEIGER

@<TRIPOS>ATOM
      1 C         140.8493  138.9245  161.0621 C.ar    1  UNL1        0.1675
      2 N         140.7586  140.4023  161.3033 N.ar    1  UNL1       -0.2120
      3 C         140.1100  140.9198  162.5529 C.ar    1  UNL1        0.1318
      4 C         139.5520  139.9595  163.5612 C.ar    1  UNL1        0.0491
      5 C         138.9034  140.4770  164.8108 C.ar    1  UNL1        0.0041
      6 C         138.3454  139.5168  165.8191 C.ar    1  UNL1        0.0002
      7 C         138.4362  138.0392  165.5779 C.ar    1  UNL1        0.0015
      8 C         139.0848  137.5217  164.3283 C.ar    1  UNL1        0.0192
      9 C         139.6427  138.4818  163.3200 C.ar    1  UNL1        0.0856
     10 N         140.2914  137.9643  162.0704 N.ar    1  UNL1       -0.2263
     11 C         143.8301  137.6131  160.8499 C.3     1  UNL1        0.0558
     12 C         142.8681  137.8042  159.7150 C.ar    1  UNL1        0.1036
     13 N         143.1073  137.4261  158.2833 N.ar    1  UNL1       -0.0816
     14 O         141.8851  137.7952  157.4959 O.2     1  UNL1       -0.3580
     15 C         140.8904  138.4014  158.4410 C.ar    1  UNL1        0.1573
     16 C         139.5276  138.9123  158.0784 C.3     1  UNL1        0.0755
     17 C         141.4980  138.4070  159.8125 C.ar    1  UNL1        0.0854
     18 C         138.8126  141.9547  165.0520 C.ar    1  UNL1        0.0001
     19 C         137.7021  142.7492  164.4313 C.ar    1  UNL1        0.0000
     20 C         137.6113  144.2270  164.6725 C.ar    1  UNL1        0.0000
     21 C         138.6313  144.9102  165.5345 C.ar    1  UNL1        0.0000
     22 C         139.7419  144.1156  166.1552 C.ar    1  UNL1        0.0000
     23 C         139.8326  142.6379  165.9140 C.ar    1  UNL1        0.0000
     24 N         140.0192  142.3974  162.7941 N.pl3   1  UNL1       -0.3131
     25 H         139.1907  142.7871  163.1560 H       1  UNL1        0.1485
     26 C         141.1909  143.2813  162.4841 C.3     1  UNL1        0.1348
     27 C         142.5538  142.9294  163.0023 C.ar    1  UNL1        0.0788
     28 C         142.9331  143.2767  164.4113 C.ar    1  UNL1        0.0165
     29 C         144.2961  142.9248  164.9296 C.ar    1  UNL1        0.0029
     30 C         145.2796  142.2255  164.0387 C.ar    1  UNL1        0.0207
     31 C         144.9002  141.8781  162.6296 C.ar    1  UNL1        0.0985
     32 N         143.5373  142.2301  162.1114 N.ar    1  UNL1       -0.2464
@<TRIPOS>BOND
     1    11    12    1
     2    12    13   ar
     3    13    14   ar
     4    14    15   ar
     5    15    16    1
     6    15    17   ar
     7    17     1    1
     8     1     2   ar
     9     2     3   ar
    10     3    24    1
    11    24    26    1
    12    26    27    1
    13    27    28   ar
    14    28    29   ar
    15    29    30   ar
    16    30    31   ar
    17    31    32   ar
    18     3     4   ar
    19     4     5   ar
    20     5    18    1
    21    18    19   ar
    22    19    20   ar
    23    20    21   ar
    24    21    22   ar
    25    22    23   ar
    26     5     6   ar
    27     6     7   ar
    28     7     8   ar
    29     8     9   ar
    30     9    10   ar
    31    17    12   ar
    32    10     1   ar
    33    32    27   ar
    34     9     4   ar
    35    23    18   ar
    36    24    25    1
@<TRIPOS>MOLECULE
*****
 32 36 0 0 0
SMALL
GASTEIGER

@<TRIPOS>ATOM
      1 C         141.0853  142.3067  168.1076 C.ar    1  UNL1        0.1675
      2 N         142.2010  141.8611  167.2095 N.ar    1  UNL1       -0.2120
      3 C         142.2200  142.2842  165.7705 C.ar    1  UNL1        0.1318
      4 C         141.1232  143.1530  165.2297 C.ar    1  UNL1        0.0491
      5 C         141.1422  143.5761  163.7908 C.ar    1  UNL1        0.0041
      6 C         140.0454  144.4448  163.2499 C.ar    1  UNL1        0.0002
      7 C         138.9298  144.8903  164.1481 C.ar    1  UNL1        0.0015
      8 C         138.9108  144.4672  165.5870 C.ar    1  UNL1        0.0192
      9 C         140.0075  143.5985  166.1278 C.ar    1  UNL1        0.0856
     10 N         139.9885  143.1754  167.5668 N.ar    1  UNL1       -0.2263
     11 C         143.1620  143.2917  170.4242 C.3     1  UNL1        0.0558
     12 C         142.0208  142.3363  170.6114 C.ar    1  UNL1        0.1036
     13 N         141.6339  141.6659  171.8963 N.ar    1  UNL1       -0.0816
     14 O         140.4402  140.7988  171.6256 O.2     1  UNL1       -0.3580
     15 C         140.0893  140.9333  170.1734 C.ar    1  UNL1        0.1573
     16 C         138.9600  140.2395  169.4713 C.3     1  UNL1        0.0755
     17 C         141.0663  141.8835  169.5466 C.ar    1  UNL1        0.0854
     18 C         142.2580  143.1305  162.8926 C.ar    1  UNL1        0.0001
     19 C         143.5735  143.8508  162.9170 C.ar    1  UNL1        0.0000
     20 C         144.6892  143.4052  162.0188 C.ar    1  UNL1        0.0000
     21 C         144.4894  142.2394  161.0964 C.ar    1  UNL1        0.0000
     22 C         143.1738  141.5191  161.0721 C.ar    1  UNL1        0.0000
     23 C         142.0581  141.9647  161.9702 C.ar    1  UNL1        0.0000
     24 N         143.3357  141.8387  164.8724 N.pl3   1  UNL1       -0.3131
     25 H         143.7754  142.4863  164.2753 H       1  UNL1        0.1485
     26 C         143.7815  140.4065  164.8840 C.3     1  UNL1        0.1348
     27 C         142.8473  139.3265  164.4247 C.ar    1  UNL1        0.0788
     28 C         143.0219  138.7108  163.0681 C.ar    1  UNL1        0.0165
     29 C         142.0877  137.6308  162.6088 C.ar    1  UNL1        0.0029
     30 C         140.9789  137.1666  163.5061 C.ar    1  UNL1        0.0207
     31 C         140.8044  137.7823  164.8627 C.ar    1  UNL1        0.0985
     32 N         141.7386  138.8623  165.3220 N.ar    1  UNL1       -0.2464
@<TRIPOS>BOND
     1    11    12    1
     2    12    13   ar
     3    13    14   ar
     4    14    15   ar
     5    15    16    1
     6    15    17   ar
     7    17     1    1
     8     1     2   ar
     9     2     3   ar
    10     3    24    1
    11    24    26    1
    12    26    27    1
    13    27    28   ar
    14    28    29   ar
    15    29    30   ar
    16    30    31   ar
    17    31    32   ar
    18     3     4   ar
    19     4     5   ar
    20     5    18    1
    21    18    19   ar
    22    19    20   ar
    23    20    21   ar
    24    21    22   ar
    25    22    23   ar
    26     5     6   ar
    27     6     7   ar
    28     7     8   ar
    29     8     9   ar
    30     9    10   ar
    31    17    12   ar
    32    10     1   ar
    33    32    27   ar
    34     9     4   ar
    35    23    18   ar
    36    24    25    1
@<TRIPOS>MOLECULE
*****
 32 36 0 0 0
SMALL
GASTEIGER

@<TRIPOS>ATOM
      1 C         141.2174  140.6057  167.9106 C.ar    1  UNL1        0.1675
      2 N         142.3909  140.4248  166.9939 N.ar    1  UNL1       -0.2120
      3 C         142.1697  140.0670  165.5541 C.ar    1  UNL1        0.1318
      4 C         140.7749  139.8900  165.0311 C.ar    1  UNL1        0.0491
      5 C         140.5537  139.5322  163.5913 C.ar    1  UNL1        0.0041
      6 C         139.1590  139.3553  163.0682 C.ar    1  UNL1        0.0002
      7 C         137.9857  139.5362  163.9849 C.ar    1  UNL1        0.0015
      8 C         138.2069  139.8940  165.4247 C.ar    1  UNL1        0.0192
      9 C         139.6016  140.0709  165.9478 C.ar    1  UNL1        0.0856
     10 N         139.8228  140.4288  167.3876 N.ar    1  UNL1       -0.2263
     11 C         140.4050  143.4285  169.3323 C.3     1  UNL1        0.0558
     12 C         141.0653  142.2610  170.0039 C.ar    1  UNL1        0.1036
     13 N         141.4680  142.1861  171.4469 N.ar    1  UNL1       -0.0816
     14 O         142.0904  140.8423  171.6852 O.2     1  UNL1       -0.3580
     15 C         142.0723  140.0866  170.3896 C.ar    1  UNL1        0.1573
     16 C         142.5958  138.6981  170.1713 C.3     1  UNL1        0.0755
     17 C         141.4387  140.9635  169.3504 C.ar    1  UNL1        0.0854
     18 C         141.7271  139.3513  162.6745 C.ar    1  UNL1        0.0001
     19 C         142.1618  140.4756  161.7818 C.ar    1  UNL1        0.0000
     20 C         143.3352  140.2947  160.8651 C.ar    1  UNL1        0.0000
     21 C         144.0740  138.9895  160.8411 C.ar    1  UNL1        0.0000
     22 C         143.6393  137.8651  161.7339 C.ar    1  UNL1        0.0000
     23 C         142.4659  138.0461  162.6506 C.ar    1  UNL1        0.0000
     24 N         143.3430  139.8861  164.6374 N.pl3   1  UNL1       -0.3131
     25 H         143.3754  139.1155  164.0255 H       1  UNL1        0.1485
     26 C         144.4671  140.8792  164.6529 C.3     1  UNL1        0.1348
     27 C         144.2425  142.2741  164.1491 C.ar    1  UNL1        0.0788
     28 C         143.5033  143.2674  164.9957 C.ar    1  UNL1        0.0165
     29 C         143.2786  144.6623  164.4919 C.ar    1  UNL1        0.0029
     30 C         143.7932  145.0639  163.1414 C.ar    1  UNL1        0.0207
     31 C         144.5325  144.0705  162.2947 C.ar    1  UNL1        0.0985
     32 N         144.7571  142.6757  162.7985 N.ar    1  UNL1       -0.2464
@<TRIPOS>BOND
     1    11    12    1
     2    12    13   ar
     3    13    14   ar
     4    14    15   ar
     5    15    16    1
     6    15    17   ar
     7    17     1    1
     8     1     2   ar
     9     2     3   ar
    10     3    24    1
    11    24    26    1
    12    26    27    1
    13    27    28   ar
    14    28    29   ar
    15    29    30   ar
    16    30    31   ar
    17    31    32   ar
    18     3     4   ar
    19     4     5   ar
    20     5    18    1
    21    18    19   ar
    22    19    20   ar
    23    20    21   ar
    24    21    22   ar
    25    22    23   ar
    26     5     6   ar
    27     6     7   ar
    28     7     8   ar
    29     8     9   ar
    30     9    10   ar
    31    17    12   ar
    32    10     1   ar
    33    32    27   ar
    34     9     4   ar
    35    23    18   ar
    36    24    25    1
@<TRIPOS>MOLECULE
*****
 32 36 0 0 0
SMALL
GASTEIGER

@<TRIPOS>ATOM
      1 C         140.7897  141.9460  167.3958 C.ar    1  UNL1        0.1675
      2 N         141.2468  143.0702  166.5141 N.ar    1  UNL1       -0.2120
      3 C         140.6798  143.2184  165.1333 C.ar    1  UNL1        0.1318
      4 C         139.6558  142.2425  164.6343 C.ar    1  UNL1        0.0491
      5 C         139.0888  142.3908  163.2535 C.ar    1  UNL1        0.0041
      6 C         138.0648  141.4150  162.7544 C.ar    1  UNL1        0.0002
      7 C         137.6078  140.2909  163.6361 C.ar    1  UNL1        0.0015
      8 C         138.1747  140.1426  165.0169 C.ar    1  UNL1        0.0192
      9 C         139.1987  141.1184  165.5160 C.ar    1  UNL1        0.0856
     10 N         139.7657  140.9702  166.8968 N.ar    1  UNL1       -0.2263
     11 C         140.3617  144.0207  169.8782 C.3     1  UNL1        0.0558
     12 C         141.1599  142.7514  169.9176 C.ar    1  UNL1        0.1036
     13 N         141.9015  142.2128  171.1051 N.ar    1  UNL1       -0.0816
     14 O         142.5567  140.9263  170.6979 O.2     1  UNL1       -0.3580
     15 C         142.2199  140.6697  169.2589 C.ar    1  UNL1        0.1573
     16 C         142.6677  139.4921  168.4450 C.3     1  UNL1        0.0755
     17 C         141.3566  141.7977  168.7766 C.ar    1  UNL1        0.0854
     18 C         139.5459  143.5150  162.3717 C.ar    1  UNL1        0.0001
     19 C         138.9928  144.8952  162.5688 C.ar    1  UNL1        0.0000
     20 C         139.4499  146.0194  161.6871 C.ar    1  UNL1        0.0000
     21 C         140.4601  145.7632  160.6083 C.ar    1  UNL1        0.0000
     22 C         141.0133  144.3829  160.4112 C.ar    1  UNL1        0.0000
     23 C         140.5562  143.2588  161.2929 C.ar    1  UNL1        0.0000
     24 N         141.1369  144.3425  164.2516 N.pl3   1  UNL1       -0.3131
     25 H         140.4833  144.8380  163.7071 H       1  UNL1        0.1485
     26 C         142.5899  144.7118  164.1995 C.3     1  UNL1        0.1348
     27 C         143.6049  143.7015  163.7536 C.ar    1  UNL1        0.0788
     28 C         144.3378  142.8761  164.7693 C.ar    1  UNL1        0.0165
     29 C         145.3529  141.8657  164.3234 C.ar    1  UNL1        0.0029
     30 C         145.6351  141.6808  162.8618 C.ar    1  UNL1        0.0207
     31 C         144.9022  142.5063  161.8461 C.ar    1  UNL1        0.0985
     32 N         143.8871  143.5166  162.2921 N.ar    1  UNL1       -0.2464
@<TRIPOS>BOND
     1    11    12    1
     2    12    13   ar
     3    13    14   ar
     4    14    15   ar
     5    15    16    1
     6    15    17   ar
     7    17     1    1
     8     1     2   ar
     9     2     3   ar
    10     3    24    1
    11    24    26    1
    12    26    27    1
    13    27    28   ar
    14    28    29   ar
    15    29    30   ar
    16    30    31   ar
    17    31    32   ar
    18     3     4   ar
    19     4     5   ar
    20     5    18    1
    21    18    19   ar
    22    19    20   ar
    23    20    21   ar
    24    21    22   ar
    25    22    23   ar
    26     5     6   ar
    27     6     7   ar
    28     7     8   ar
    29     8     9   ar
    30     9    10   ar
    31    17    12   ar
    32    10     1   ar
    33    32    27   ar
    34     9     4   ar
    35    23    18   ar
    36    24    25    1
